Program Version,EnergyPlus, Version 23.2.0-7636e6b3e9, YMD=2024.01.24 10:54
! <Version>, Version ID
 Version, 23.2
! <Timesteps per Hour>, #TimeSteps, Minutes per TimeStep {minutes}
 Timesteps per Hour,  4, 15
! <System Convergence Limits>, Minimum System TimeStep {minutes}, Max HVAC Iterations, Minimum Plant Iterations, Maximum Plant Iterations
 System Convergence Limits, 1, 20, 2, 8
! <Simulation Control>, Do Zone Sizing, Do System Sizing, Do Plant Sizing, Do Design Days, Do Weather Simulation, Do HVAC Sizing Simulation
 Simulation Control, Yes, Yes, Yes, Yes, No, Yes
! <Performance Precision Tradeoffs>, Use Coil Direct Simulation, Zone Radiant Exchange Algorithm, Override Mode, Number of Timestep In Hour, Force Euler Method, Minimum Number of Warmup Days, Force Suppress All Begin Environment Resets, Minimum System Timestep, MaxZoneTempDiff, MaxAllowedDelTemp
 Performance Precision Tradeoffs, No, ScriptF, Normal, 4, No, 1, No, 1.0, 0.300, 2.0000E-003
! <Output Reporting Tolerances>, Tolerance for Time Heating Setpoint Not Met, Tolerance for Zone Cooling Setpoint Not Met Time
 Output Reporting Tolerances, 0.200, 0.200, 
! <Site:GroundTemperature:BuildingSurface>,Jan{C},Feb{C},Mar{C},Apr{C},May{C},Jun{C},Jul{C},Aug{C},Sep{C},Oct{C},Nov{C},Dec{C}
 Site:GroundTemperature:BuildingSurface,  18.00,  18.00,  18.00,  18.00,  18.00,  18.00,  18.00,  18.00,  18.00,  18.00,  18.00,  18.00
! <Site:GroundTemperature:FCfactorMethod>,Jan{C},Feb{C},Mar{C},Apr{C},May{C},Jun{C},Jul{C},Aug{C},Sep{C},Oct{C},Nov{C},Dec{C}
 Site:GroundTemperature:FCfactorMethod,  24.20,  18.90,  15.70,  13.60,  15.50,  17.10,  21.20,  26.90,  27.60,  27.90,  27.40,  26.20
! <Site:GroundTemperature:Shallow>,Jan{C},Feb{C},Mar{C},Apr{C},May{C},Jun{C},Jul{C},Aug{C},Sep{C},Oct{C},Nov{C},Dec{C}
 Site:GroundTemperature:Shallow,  13.00,  13.00,  13.00,  13.00,  13.00,  13.00,  13.00,  13.00,  13.00,  13.00,  13.00,  13.00
! <Site:GroundTemperature:Deep>,Jan{C},Feb{C},Mar{C},Apr{C},May{C},Jun{C},Jul{C},Aug{C},Sep{C},Oct{C},Nov{C},Dec{C}
 Site:GroundTemperature:Deep,  16.00,  16.00,  16.00,  16.00,  16.00,  16.00,  16.00,  16.00,  16.00,  16.00,  16.00,  16.00
! <Site:GroundReflectance>,Jan{dimensionless},Feb{dimensionless},Mar{dimensionless},Apr{dimensionless},May{dimensionless},Jun{dimensionless},Jul{dimensionless},Aug{dimensionless},Sep{dimensionless},Oct{dimensionless},Nov{dimensionless},Dec{dimensionless}
 Site:GroundReflectance,  0.20,  0.20,  0.20,  0.20,  0.20,  0.20,  0.20,  0.20,  0.20,  0.20,  0.20,  0.20
! <Site:GroundReflectance:SnowModifier>, Normal, Daylighting {dimensionless}
 Site:GroundReflectance:SnowModifier,   1.000,   1.000
! <Site:GroundReflectance:Snow>,Jan{dimensionless},Feb{dimensionless},Mar{dimensionless},Apr{dimensionless},May{dimensionless},Jun{dimensionless},Jul{dimensionless},Aug{dimensionless},Sep{dimensionless},Oct{dimensionless},Nov{dimensionless},Dec{dimensionless}
 Site:GroundReflectance:Snow,  0.20,  0.20,  0.20,  0.20,  0.20,  0.20,  0.20,  0.20,  0.20,  0.20,  0.20,  0.20
! <Site:GroundReflectance:Snow:Daylighting>,Jan{dimensionless},Feb{dimensionless},Mar{dimensionless},Apr{dimensionless},May{dimensionless},Jun{dimensionless},Jul{dimensionless},Aug{dimensionless},Sep{dimensionless},Oct{dimensionless},Nov{dimensionless},Dec{dimensionless}
 Site:GroundReflectance:Snow:Daylighting,  0.20,  0.20,  0.20,  0.20,  0.20,  0.20,  0.20,  0.20,  0.20,  0.20,  0.20,  0.20
! <Environment:Weather Station>,Wind Sensor Height Above Ground {m},Wind Speed Profile Exponent {},Wind Speed Profile Boundary Layer Thickness {m},Air Temperature Sensor Height Above Ground {m},Wind Speed Modifier Coefficient-Internal,Temperature Modifier Coefficient-Internal
Environment:Weather Station,10.000,0.140,270.000,1.500,1.586,9.750E-003
! <Site:Location>, Location Name, Latitude {N+/S- Deg}, Longitude {E+/W- Deg},  Time Zone Number {GMT+/-}, Elevation {m},  Standard Pressure at Elevation {Pa}, Standard RhoAir at Elevation
Site:Location,Jacksonville Intnl FL USA customized weather file WMO#=722060,30.49,-81.69,-5.00,10.00,101205,1.2029
! <Site Water Mains Temperature Information>,Calculation Method{},Water Mains Temperature Schedule Name{},Annual Average Outdoor Air Temperature{C},Maximum Difference In Monthly Average Outdoor Air Temperatures{deltaC},Fixed Default Water Mains Temperature{C}
Site Water Mains Temperature Information,Correlation,NA,20.63,17.36,NA
! <Building Information>, Building Name,North Axis {deg},Terrain,  Loads Convergence Tolerance Value,Temperature Convergence Tolerance Value,  Solar Distribution,Maximum Number of Warmup Days,Minimum Number of Warmup Days
 Building Information,ComStock DOE Ref 1980-2004|LargeOffice,315.000,City,4.00000E-002,0.40000,FullExterior,25,1
! <Inside Convection Algorithm>, Algorithm {Simple | TARP | CeilingDiffuser | AdaptiveConvectionAlgorithm}
Inside Convection Algorithm,TARP
! <Outside Convection Algorithm>, Algorithm {SimpleCombined | TARP | MoWitt | DOE-2 | AdaptiveConvectionAlgorithm}
Outside Convection Algorithm,DOE-2
! <Sky Radiance Distribution>, Value {Anisotropic}
Sky Radiance Distribution,Anisotropic
! <Zone Air Solution Algorithm>, Algorithm {ThirdOrderBackwardDifference | AnalyticalSolution | EulerMethod}, Space Heat Balance Sizing, Space Heat Balance Simulation
 Zone Air Solution Algorithm, ThirdOrderBackwardDifference, No, No
! <Zone Air Carbon Dioxide Balance Simulation>, Simulation {Yes/No}, Carbon Dioxide Concentration
 Zone Air Carbon Dioxide Balance Simulation, No,N/A
! <Zone Air Generic Contaminant Balance Simulation>, Simulation {Yes/No}, Generic Contaminant Concentration
 Zone Air Generic Contaminant Balance Simulation, No,N/A
! <Zone Air Mass Flow Balance Simulation>, Enforce Mass Balance, Adjust Zone Mixing and Return {AdjustMixingOnly | AdjustReturnOnly | AdjustMixingThenReturn | AdjustReturnThenMixing | None}, Adjust Zone Infiltration {AddInfiltration | AdjustInfiltration | None}, Infiltration Zones {MixingSourceZonesOnly | AllZones}
 Zone Air Mass Flow Balance Simulation, No,N/A,N/A,N/A
! <HVACSystemRootFindingAlgorithm>, Value {RegulaFalsi | Bisection | BisectionThenRegulaFalsi | RegulaFalsiThenBisection}
 HVACSystemRootFindingAlgorithm, RegulaFalsi
! <Environment:Site Atmospheric Variation>,Wind Speed Profile Exponent {},Wind Speed Profile Boundary Layer Thickness {m},Air Temperature Gradient Coefficient {K/m}
Environment:Site Atmospheric Variation,0.330,460.000,6.500000E-003
! <Surface Geometry>,Starting Corner,Vertex Input Direction,Coordinate System,Daylight Reference Point Coordinate System,Rectangular (Simple) Surface Coordinate System
 Surface Geometry,UpperLeftCorner,Counterclockwise,RelativeCoordinateSystem,RelativeCoordinateSystem,RelativeToZoneOrigin
! <Surface Heat Transfer Algorithm>, Value {CTF - ConductionTransferFunction | EMPD - MoisturePenetrationDepthConductionTransferFunction | CondFD - ConductionFiniteDifference | HAMT - CombinedHeatAndMoistureFiniteElement} - Description,Inside Surface Max Temperature Limit{C}, Surface Convection Coefficient Lower Limit {W/m2-K}, Surface Convection Coefficient Upper Limit {W/m2-K}
Surface Heat Transfer Algorithm, CTF - ConductionTransferFunction,200,0.10,1000.0
! <Shading Summary>, Number of Fixed Detached Shades, Number of Building Detached Shades, Number of Attached Shades
 Shading Summary,0,0,0
! <Zone Summary>, Number of Zones, Number of Zone Surfaces, Number of SubSurfaces
 Zone Summary,180,1320,240
! <Zone Information>,Zone Name,North Axis {deg},Origin X-Coordinate {m},Origin Y-Coordinate {m},Origin Z-Coordinate {m},Centroid X-Coordinate {m},Centroid Y-Coordinate {m},Centroid Z-Coordinate {m},Type,Zone Multiplier,Zone List Multiplier,Minimum X {m},Maximum X {m},Minimum Y {m},Maximum Y {m},Minimum Z {m},Maximum Z {m},Ceiling Height {m},Volume {m3},Zone Inside Convection Algorithm {Simple-Detailed-CeilingDiffuser-TrombeWall},Zone Outside Convection Algorithm {Simple-Detailed-Tarp-MoWitt-DOE-2-BLAST}, Floor Area {m2},Exterior Gross Wall Area {m2},Exterior Net Wall Area {m2},Exterior Window Area {m2}, Number of Surfaces, Number of SubSurfaces, Number of Shading SubSurfaces,  Part of Total Building Area
 Zone Information, ZONE OFFICE WHOLEBUILDING - LG OFFICE A  - STORY GROUND,0.0,-2.03,-6.60,0.00,3.05,-3.05,1.98,1,1,1,2.00E-015,6.10,-6.10,1.11E-015,0.00,3.96,3.96,73.45,TARP,DOE-2,18.54,16.06,13.17,2.89,6,1,0,Yes
 Zone Information, ZONE OFFICE WHOLEBUILDING - LG OFFICE A  - STORY MID,0.0,-2.03,-6.60,3.96,3.05,-3.05,5.94,1,1,1,2.00E-015,6.10,-6.10,1.11E-015,3.96,7.92,3.96,73.45,TARP,DOE-2,18.54,16.06,13.17,2.89,6,1,0,Yes
 Zone Information, ZONE OFFICE WHOLEBUILDING - LG OFFICE A  - STORY MID10,0.0,-2.03,-6.60,39.62,3.05,-3.05,41.61,1,1,1,2.00E-015,6.10,-6.10,1.11E-015,39.62,43.59,3.96,73.45,TARP,DOE-2,18.54,16.06,13.17,2.89,6,1,0,Yes
 Zone Information, ZONE OFFICE WHOLEBUILDING - LG OFFICE A  - STORY MID11,0.0,-2.03,-6.60,43.59,3.05,-3.05,45.57,1,1,1,2.00E-015,6.10,-6.10,1.11E-015,43.59,47.55,3.96,73.45,TARP,DOE-2,18.54,16.06,13.17,2.89,6,1,0,Yes
 Zone Information, ZONE OFFICE WHOLEBUILDING - LG OFFICE A  - STORY MID12,0.0,-2.03,-6.60,47.55,3.05,-3.05,49.53,1,1,1,2.00E-015,6.10,-6.10,1.11E-015,47.55,51.51,3.96,73.45,TARP,DOE-2,18.54,16.06,13.17,2.89,6,1,0,Yes
 Zone Information, ZONE OFFICE WHOLEBUILDING - LG OFFICE A  - STORY MID13,0.0,-2.03,-6.60,51.51,3.05,-3.05,53.49,1,1,1,2.00E-015,6.10,-6.10,1.11E-015,51.51,55.47,3.96,73.45,TARP,DOE-2,18.54,16.06,13.17,2.89,6,1,0,Yes
 Zone Information, ZONE OFFICE WHOLEBUILDING - LG OFFICE A  - STORY MID14,0.0,-2.03,-6.60,55.47,3.05,-3.05,57.45,1,1,1,2.00E-015,6.10,-6.10,1.11E-015,55.47,59.44,3.96,73.45,TARP,DOE-2,18.54,16.06,13.17,2.89,6,1,0,Yes
 Zone Information, ZONE OFFICE WHOLEBUILDING - LG OFFICE A  - STORY MID15,0.0,-2.03,-6.60,59.44,3.05,-3.05,61.42,1,1,1,2.00E-015,6.10,-6.10,1.11E-015,59.44,63.40,3.96,73.45,TARP,DOE-2,18.54,16.06,13.17,2.89,6,1,0,Yes
 Zone Information, ZONE OFFICE WHOLEBUILDING - LG OFFICE A  - STORY MID16,0.0,-2.03,-6.60,63.40,3.05,-3.05,65.38,1,1,1,2.00E-015,6.10,-6.10,1.11E-015,63.40,67.36,3.96,73.45,TARP,DOE-2,18.54,16.06,13.17,2.89,6,1,0,Yes
 Zone Information, ZONE OFFICE WHOLEBUILDING - LG OFFICE A  - STORY MID17,0.0,-2.03,-6.60,67.36,3.05,-3.05,69.34,1,1,1,2.00E-015,6.10,-6.10,1.11E-015,67.36,71.32,3.96,73.45,TARP,DOE-2,18.54,16.06,13.17,2.89,6,1,0,Yes
 Zone Information, ZONE OFFICE WHOLEBUILDING - LG OFFICE A  - STORY MID18,0.0,-2.03,-6.60,71.32,3.05,-3.05,73.30,1,1,1,2.00E-015,6.10,-6.10,1.11E-015,71.32,75.29,3.96,73.45,TARP,DOE-2,18.54,16.06,13.17,2.89,6,1,0,Yes
 Zone Information, ZONE OFFICE WHOLEBUILDING - LG OFFICE A  - STORY MID2,0.0,-2.03,-6.60,7.92,3.05,-3.05,9.91,1,1,1,2.00E-015,6.10,-6.10,1.11E-015,7.92,11.89,3.96,73.45,TARP,DOE-2,18.54,16.06,13.17,2.89,6,1,0,Yes
 Zone Information, ZONE OFFICE WHOLEBUILDING - LG OFFICE A  - STORY MID3,0.0,-2.03,-6.60,11.89,3.05,-3.05,13.87,1,1,1,2.00E-015,6.10,-6.10,1.11E-015,11.89,15.85,3.96,73.45,TARP,DOE-2,18.54,16.06,13.17,2.89,6,1,0,Yes
 Zone Information, ZONE OFFICE WHOLEBUILDING - LG OFFICE A  - STORY MID4,0.0,-2.03,-6.60,15.85,3.05,-3.05,17.83,1,1,1,2.00E-015,6.10,-6.10,1.11E-015,15.85,19.81,3.96,73.45,TARP,DOE-2,18.54,16.06,13.17,2.89,6,1,0,Yes
 Zone Information, ZONE OFFICE WHOLEBUILDING - LG OFFICE A  - STORY MID5,0.0,-2.03,-6.60,19.81,3.05,-3.05,21.79,1,1,1,2.00E-015,6.10,-6.10,1.11E-015,19.81,23.77,3.96,73.45,TARP,DOE-2,18.54,16.06,13.17,2.89,6,1,0,Yes
 Zone Information, ZONE OFFICE WHOLEBUILDING - LG OFFICE A  - STORY MID6,0.0,-2.03,-6.60,23.77,3.05,-3.05,25.76,1,1,1,2.00E-015,6.10,-6.10,1.11E-015,23.77,27.74,3.96,73.45,TARP,DOE-2,18.54,16.06,13.17,2.89,6,1,0,Yes
 Zone Information, ZONE OFFICE WHOLEBUILDING - LG OFFICE A  - STORY MID7,0.0,-2.03,-6.60,27.74,3.05,-3.05,29.72,1,1,1,2.00E-015,6.10,-6.10,1.11E-015,27.74,31.70,3.96,73.45,TARP,DOE-2,18.54,16.06,13.17,2.89,6,1,0,Yes
 Zone Information, ZONE OFFICE WHOLEBUILDING - LG OFFICE A  - STORY MID8,0.0,-2.03,-6.60,31.70,3.05,-3.05,33.68,1,1,1,2.00E-015,6.10,-6.10,1.11E-015,31.70,35.66,3.96,73.45,TARP,DOE-2,18.54,16.06,13.17,2.89,6,1,0,Yes
 Zone Information, ZONE OFFICE WHOLEBUILDING - LG OFFICE A  - STORY MID9,0.0,-2.03,-6.60,35.66,3.05,-3.05,37.64,1,1,1,2.00E-015,6.10,-6.10,1.11E-015,35.66,39.62,3.96,73.45,TARP,DOE-2,18.54,16.06,13.17,2.89,6,1,0,Yes
 Zone Information, ZONE OFFICE WHOLEBUILDING - LG OFFICE A  - STORY TOP,0.0,-2.03,-6.60,75.29,3.05,-3.05,77.27,1,1,1,2.00E-015,6.10,-6.10,1.11E-015,75.29,79.25,3.96,73.45,TARP,DOE-2,18.54,16.06,13.17,2.89,6,1,0,Yes
 Zone Information, ZONE OFFICE WHOLEBUILDING - LG OFFICE A END_A - STORY GROUND,0.0,-6.60,-6.60,0.00,1.78E-015,-6.10,1.98,1,1,1,-3.23,3.23,-9.33,-2.87,0.00,3.96,3.96,82.83,TARP,DOE-2,20.90,36.23,29.71,6.52,6,2,0,Yes
 Zone Information, ZONE OFFICE WHOLEBUILDING - LG OFFICE A END_A - STORY MID,0.0,-6.60,-6.60,3.96,1.78E-015,-6.10,5.94,1,1,1,-3.23,3.23,-9.33,-2.87,3.96,7.92,3.96,82.83,TARP,DOE-2,20.90,36.23,29.71,6.52,6,2,0,Yes
 Zone Information, ZONE OFFICE WHOLEBUILDING - LG OFFICE A END_A - STORY MID10,0.0,-6.60,-6.60,39.62,2.22E-015,-6.10,41.61,1,1,1,-3.23,3.23,-9.33,-2.87,39.62,43.59,3.96,82.83,TARP,DOE-2,20.90,36.23,29.71,6.52,6,2,0,Yes
 Zone Information, ZONE OFFICE WHOLEBUILDING - LG OFFICE A END_A - STORY MID11,0.0,-6.60,-6.60,43.59,1.75E-015,-6.10,45.57,1,1,1,-3.23,3.23,-9.33,-2.87,43.59,47.55,3.96,82.83,TARP,DOE-2,20.90,36.23,29.71,6.52,6,2,0,Yes
 Zone Information, ZONE OFFICE WHOLEBUILDING - LG OFFICE A END_A - STORY MID12,0.0,-6.60,-6.60,47.55,9.72E-016,-6.10,49.53,1,1,1,-3.23,3.23,-9.33,-2.87,47.55,51.51,3.96,82.83,TARP,DOE-2,20.90,36.23,29.71,6.52,6,2,0,Yes
 Zone Information, ZONE OFFICE WHOLEBUILDING - LG OFFICE A END_A - STORY MID13,0.0,-6.60,-6.60,51.51,2.25E-015,-6.10,53.49,1,1,1,-3.23,3.23,-9.33,-2.87,51.51,55.47,3.96,82.83,TARP,DOE-2,20.90,36.23,29.71,6.52,6,2,0,Yes
 Zone Information, ZONE OFFICE WHOLEBUILDING - LG OFFICE A END_A - STORY MID14,0.0,-6.60,-6.60,55.47,2.53E-015,-6.10,57.45,1,1,1,-3.23,3.23,-9.33,-2.87,55.47,59.44,3.96,82.83,TARP,DOE-2,20.90,36.23,29.71,6.52,6,2,0,Yes
 Zone Information, ZONE OFFICE WHOLEBUILDING - LG OFFICE A END_A - STORY MID15,0.0,-6.60,-6.60,59.44,1.75E-015,-6.10,61.42,1,1,1,-3.23,3.23,-9.33,-2.87,59.44,63.40,3.96,82.83,TARP,DOE-2,20.90,36.23,29.71,6.52,6,2,0,Yes
 Zone Information, ZONE OFFICE WHOLEBUILDING - LG OFFICE A END_A - STORY MID16,0.0,-6.60,-6.60,63.40,1.78E-015,-6.10,65.38,1,1,1,-3.23,3.23,-9.33,-2.87,63.40,67.36,3.96,82.83,TARP,DOE-2,20.90,36.23,29.71,6.52,6,2,0,Yes
 Zone Information, ZONE OFFICE WHOLEBUILDING - LG OFFICE A END_A - STORY MID17,0.0,-6.60,-6.60,67.36,1.94E-015,-6.10,69.34,1,1,1,-3.23,3.23,-9.33,-2.87,67.36,71.32,3.96,82.83,TARP,DOE-2,20.90,36.23,29.71,6.52,6,2,0,Yes
 Zone Information, ZONE OFFICE WHOLEBUILDING - LG OFFICE A END_A - STORY MID18,0.0,-6.60,-6.60,71.32,2.43E-015,-6.10,73.30,1,1,1,-3.23,3.23,-9.33,-2.87,71.32,75.29,3.96,82.83,TARP,DOE-2,20.90,36.23,29.71,6.52,6,2,0,Yes
 Zone Information, ZONE OFFICE WHOLEBUILDING - LG OFFICE A END_A - STORY MID2,0.0,-6.60,-6.60,7.92,1.97E-015,-6.10,9.91,1,1,1,-3.23,3.23,-9.33,-2.87,7.92,11.89,3.96,82.83,TARP,DOE-2,20.90,36.23,29.71,6.52,6,2,0,Yes
 Zone Information, ZONE OFFICE WHOLEBUILDING - LG OFFICE A END_A - STORY MID3,0.0,-6.60,-6.60,11.89,1.69E-015,-6.10,13.87,1,1,1,-3.23,3.23,-9.33,-2.87,11.89,15.85,3.96,82.83,TARP,DOE-2,20.90,36.23,29.71,6.52,6,2,0,Yes
 Zone Information, ZONE OFFICE WHOLEBUILDING - LG OFFICE A END_A - STORY MID4,0.0,-6.60,-6.60,15.85,1.78E-015,-6.10,17.83,1,1,1,-3.23,3.23,-9.33,-2.87,15.85,19.81,3.96,82.83,TARP,DOE-2,20.90,36.23,29.71,6.52,6,2,0,Yes
 Zone Information, ZONE OFFICE WHOLEBUILDING - LG OFFICE A END_A - STORY MID5,0.0,-6.60,-6.60,19.81,2.09E-015,-6.10,21.79,1,1,1,-3.23,3.23,-9.33,-2.87,19.81,23.77,3.96,82.83,TARP,DOE-2,20.90,36.23,29.71,6.52,6,2,0,Yes
 Zone Information, ZONE OFFICE WHOLEBUILDING - LG OFFICE A END_A - STORY MID6,0.0,-6.60,-6.60,23.77,1.31E-015,-6.10,25.76,1,1,1,-3.23,3.23,-9.33,-2.87,23.77,27.74,3.96,82.83,TARP,DOE-2,20.90,36.23,29.71,6.52,6,2,0,Yes
 Zone Information, ZONE OFFICE WHOLEBUILDING - LG OFFICE A END_A - STORY MID7,0.0,-6.60,-6.60,27.74,1.97E-015,-6.10,29.72,1,1,1,-3.23,3.23,-9.33,-2.87,27.74,31.70,3.96,82.83,TARP,DOE-2,20.90,36.23,29.71,6.52,6,2,0,Yes
 Zone Information, ZONE OFFICE WHOLEBUILDING - LG OFFICE A END_A - STORY MID8,0.0,-6.60,-6.60,31.70,1.78E-015,-6.10,33.68,1,1,1,-3.23,3.23,-9.33,-2.87,31.70,35.66,3.96,82.83,TARP,DOE-2,20.90,36.23,29.71,6.52,6,2,0,Yes
 Zone Information, ZONE OFFICE WHOLEBUILDING - LG OFFICE A END_A - STORY MID9,0.0,-6.60,-6.60,35.66,1.97E-015,-6.10,37.64,1,1,1,-3.23,3.23,-9.33,-2.87,35.66,39.62,3.96,82.83,TARP,DOE-2,20.90,36.23,29.71,6.52,6,2,0,Yes
 Zone Information, ZONE OFFICE WHOLEBUILDING - LG OFFICE A END_A - STORY TOP,0.0,-6.60,-6.60,75.29,1.66E-015,-6.10,77.27,1,1,1,-3.23,3.23,-9.33,-2.87,75.29,79.25,3.96,82.83,TARP,DOE-2,20.90,36.23,29.71,6.52,6,2,0,Yes
 Zone Information, ZONE OFFICE WHOLEBUILDING - LG OFFICE A END_B - STORY GROUND,0.0,2.03,-6.60,0.00,6.10,2.34E-015,1.98,1,1,1,2.87,9.33,-3.23,3.23,0.00,3.96,3.96,82.83,TARP,DOE-2,20.90,36.23,29.71,6.52,6,2,0,Yes
 Zone Information, ZONE OFFICE WHOLEBUILDING - LG OFFICE A END_B - STORY MID,0.0,2.03,-6.60,3.96,6.10,2.34E-015,5.94,1,1,1,2.87,9.33,-3.23,3.23,3.96,7.92,3.96,82.83,TARP,DOE-2,20.90,36.23,29.71,6.52,6,2,0,Yes
 Zone Information, ZONE OFFICE WHOLEBUILDING - LG OFFICE A END_B - STORY MID10,0.0,2.03,-6.60,39.62,6.10,1.62E-015,41.61,1,1,1,2.87,9.33,-3.23,3.23,39.62,43.59,3.96,82.83,TARP,DOE-2,20.90,36.23,29.71,6.52,6,2,0,Yes
 Zone Information, ZONE OFFICE WHOLEBUILDING - LG OFFICE A END_B - STORY MID11,0.0,2.03,-6.60,43.59,6.10,3.61E-015,45.57,1,1,1,2.87,9.33,-3.23,3.23,43.59,47.55,3.96,82.83,TARP,DOE-2,20.90,36.23,29.71,6.52,6,2,0,Yes
 Zone Information, ZONE OFFICE WHOLEBUILDING - LG OFFICE A END_B - STORY MID12,0.0,2.03,-6.60,47.55,6.10,2.09E-015,49.53,1,1,1,2.87,9.33,-3.23,3.23,47.55,51.51,3.96,82.83,TARP,DOE-2,20.90,36.23,29.71,6.52,6,2,0,Yes
 Zone Information, ZONE OFFICE WHOLEBUILDING - LG OFFICE A END_B - STORY MID13,0.0,2.03,-6.60,51.51,6.10,1.78E-015,53.49,1,1,1,2.87,9.33,-3.23,3.23,51.51,55.47,3.96,82.83,TARP,DOE-2,20.90,36.23,29.71,6.52,6,2,0,Yes
 Zone Information, ZONE OFFICE WHOLEBUILDING - LG OFFICE A END_B - STORY MID14,0.0,2.03,-6.60,55.47,6.10,3.05E-015,57.45,1,1,1,2.87,9.33,-3.23,3.23,55.47,59.44,3.96,82.83,TARP,DOE-2,20.90,36.23,29.71,6.52,6,2,0,Yes
 Zone Information, ZONE OFFICE WHOLEBUILDING - LG OFFICE A END_B - STORY MID15,0.0,2.03,-6.60,59.44,6.10,1.78E-015,61.42,1,1,1,2.87,9.33,-3.23,3.23,59.44,63.40,3.96,82.83,TARP,DOE-2,20.90,36.23,29.71,6.52,6,2,0,Yes
 Zone Information, ZONE OFFICE WHOLEBUILDING - LG OFFICE A END_B - STORY MID16,0.0,2.03,-6.60,63.40,6.10,1.62E-015,65.38,1,1,1,2.87,9.33,-3.23,3.23,63.40,67.36,3.96,82.83,TARP,DOE-2,20.90,36.23,29.71,6.52,6,2,0,Yes
 Zone Information, ZONE OFFICE WHOLEBUILDING - LG OFFICE A END_B - STORY MID17,0.0,2.03,-6.60,67.36,6.10,2.18E-015,69.34,1,1,1,2.87,9.33,-3.23,3.23,67.36,71.32,3.96,82.83,TARP,DOE-2,20.90,36.23,29.71,6.52,6,2,0,Yes
 Zone Information, ZONE OFFICE WHOLEBUILDING - LG OFFICE A END_B - STORY MID18,0.0,2.03,-6.60,71.32,6.10,2.62E-015,73.30,1,1,1,2.87,9.33,-3.23,3.23,71.32,75.29,3.96,82.83,TARP,DOE-2,20.90,36.23,29.71,6.52,6,2,0,Yes
 Zone Information, ZONE OFFICE WHOLEBUILDING - LG OFFICE A END_B - STORY MID2,0.0,2.03,-6.60,7.92,6.10,2.46E-015,9.91,1,1,1,2.87,9.33,-3.23,3.23,7.92,11.89,3.96,82.83,TARP,DOE-2,20.90,36.23,29.71,6.52,6,2,0,Yes
 Zone Information, ZONE OFFICE WHOLEBUILDING - LG OFFICE A END_B - STORY MID3,0.0,2.03,-6.60,11.89,6.10,2.21E-015,13.87,1,1,1,2.87,9.33,-3.23,3.23,11.89,15.85,3.96,82.83,TARP,DOE-2,20.90,36.23,29.71,6.52,6,2,0,Yes
 Zone Information, ZONE OFFICE WHOLEBUILDING - LG OFFICE A END_B - STORY MID4,0.0,2.03,-6.60,15.85,6.10,2.34E-015,17.83,1,1,1,2.87,9.33,-3.23,3.23,15.85,19.81,3.96,82.83,TARP,DOE-2,20.90,36.23,29.71,6.52,6,2,0,Yes
 Zone Information, ZONE OFFICE WHOLEBUILDING - LG OFFICE A END_B - STORY MID5,0.0,2.03,-6.60,19.81,6.10,2.52E-015,21.79,1,1,1,2.87,9.33,-3.23,3.23,19.81,23.77,3.96,82.83,TARP,DOE-2,20.90,36.23,29.71,6.52,6,2,0,Yes
 Zone Information, ZONE OFFICE WHOLEBUILDING - LG OFFICE A END_B - STORY MID6,0.0,2.03,-6.60,23.77,6.10,1.99E-015,25.76,1,1,1,2.87,9.33,-3.23,3.23,23.77,27.74,3.96,82.83,TARP,DOE-2,20.90,36.23,29.71,6.52,6,2,0,Yes
 Zone Information, ZONE OFFICE WHOLEBUILDING - LG OFFICE A END_B - STORY MID7,0.0,2.03,-6.60,27.74,6.10,2.40E-015,29.72,1,1,1,2.87,9.33,-3.23,3.23,27.74,31.70,3.96,82.83,TARP,DOE-2,20.90,36.23,29.71,6.52,6,2,0,Yes
 Zone Information, ZONE OFFICE WHOLEBUILDING - LG OFFICE A END_B - STORY MID8,0.0,2.03,-6.60,31.70,6.10,2.06E-015,33.68,1,1,1,2.87,9.33,-3.23,3.23,31.70,35.66,3.96,82.83,TARP,DOE-2,20.90,36.23,29.71,6.52,6,2,0,Yes
 Zone Information, ZONE OFFICE WHOLEBUILDING - LG OFFICE A END_B - STORY MID9,0.0,2.03,-6.60,35.66,6.10,2.68E-015,37.64,1,1,1,2.87,9.33,-3.23,3.23,35.66,39.62,3.96,82.83,TARP,DOE-2,20.90,36.23,29.71,6.52,6,2,0,Yes
 Zone Information, ZONE OFFICE WHOLEBUILDING - LG OFFICE A END_B - STORY TOP,0.0,2.03,-6.60,75.29,6.10,2.90E-015,77.27,1,1,1,2.87,9.33,-3.23,3.23,75.29,79.25,3.96,82.83,TARP,DOE-2,20.90,36.23,29.71,6.52,6,2,0,Yes
 Zone Information, ZONE OFFICE WHOLEBUILDING - LG OFFICE B  - STORY GROUND,0.0,-2.03,-2.03,0.00,-7.94E-017,1.70E-015,1.98,1,1,1,-2.87,2.87,-2.87,2.87,0.00,3.96,3.96,65.13,TARP,DOE-2,16.44,0.00,0.00,0.00,6,0,0,Yes
 Zone Information, ZONE OFFICE WHOLEBUILDING - LG OFFICE B  - STORY MID,0.0,-2.03,-2.03,3.96,-6.26E-018,1.85E-015,5.94,1,1,1,-2.87,2.87,-2.87,2.87,3.96,7.92,3.96,65.13,TARP,DOE-2,16.44,0.00,0.00,0.00,6,0,0,Yes
 Zone Information, ZONE OFFICE WHOLEBUILDING - LG OFFICE B  - STORY MID10,0.0,-2.03,-2.03,39.62,-2.99E-016,1.78E-015,41.61,1,1,1,-2.87,2.87,-2.87,2.87,39.62,43.59,3.96,65.13,TARP,DOE-2,16.44,0.00,0.00,0.00,6,0,0,Yes
 Zone Information, ZONE OFFICE WHOLEBUILDING - LG OFFICE B  - STORY MID11,0.0,-2.03,-2.03,43.59,3.60E-016,2.03E-015,45.57,1,1,1,-2.87,2.87,-2.87,2.87,43.59,47.55,3.96,65.13,TARP,DOE-2,16.44,0.00,0.00,0.00,6,0,0,Yes
 Zone Information, ZONE OFFICE WHOLEBUILDING - LG OFFICE B  - STORY MID12,0.0,-2.03,-2.03,47.55,-1.89E-016,1.48E-015,49.53,1,1,1,-2.87,2.87,-2.87,2.87,47.55,51.51,3.96,65.13,TARP,DOE-2,16.44,0.00,0.00,0.00,6,0,0,Yes
 Zone Information, ZONE OFFICE WHOLEBUILDING - LG OFFICE B  - STORY MID13,0.0,-2.03,-2.03,51.51,6.69E-017,2.14E-015,53.49,1,1,1,-2.87,2.87,-2.87,2.87,51.51,55.47,3.96,65.13,TARP,DOE-2,16.44,0.00,0.00,0.00,6,0,0,Yes
 Zone Information, ZONE OFFICE WHOLEBUILDING - LG OFFICE B  - STORY MID14,0.0,-2.03,-2.03,55.47,-1.16E-016,1.30E-015,57.45,1,1,1,-2.87,2.87,-2.87,2.87,55.47,59.44,3.96,65.13,TARP,DOE-2,16.44,0.00,0.00,0.00,6,0,0,Yes
 Zone Information, ZONE OFFICE WHOLEBUILDING - LG OFFICE B  - STORY MID15,0.0,-2.03,-2.03,59.44,-7.94E-017,2.33E-015,61.42,1,1,1,-2.87,2.87,-2.87,2.87,59.44,63.40,3.96,65.13,TARP,DOE-2,16.44,0.00,0.00,0.00,6,0,0,Yes
 Zone Information, ZONE OFFICE WHOLEBUILDING - LG OFFICE B  - STORY MID16,0.0,-2.03,-2.03,63.40,3.03E-017,2.25E-015,65.38,1,1,1,-2.87,2.87,-2.87,2.87,63.40,67.36,3.96,65.13,TARP,DOE-2,16.44,0.00,0.00,0.00,6,0,0,Yes
 Zone Information, ZONE OFFICE WHOLEBUILDING - LG OFFICE B  - STORY MID17,0.0,-2.03,-2.03,67.36,-1.16E-016,1.30E-015,69.34,1,1,1,-2.87,2.87,-2.87,2.87,67.36,71.32,3.96,65.13,TARP,DOE-2,16.44,0.00,0.00,0.00,6,0,0,Yes
 Zone Information, ZONE OFFICE WHOLEBUILDING - LG OFFICE B  - STORY MID18,0.0,-2.03,-2.03,71.32,6.69E-017,2.14E-015,73.30,1,1,1,-2.87,2.87,-2.87,2.87,71.32,75.29,3.96,65.13,TARP,DOE-2,16.44,0.00,0.00,0.00,6,0,0,Yes
 Zone Information, ZONE OFFICE WHOLEBUILDING - LG OFFICE B  - STORY MID2,0.0,-2.03,-2.03,7.92,6.69E-017,1.81E-015,9.91,1,1,1,-2.87,2.87,-2.87,2.87,7.92,11.89,3.96,65.13,TARP,DOE-2,16.44,0.00,0.00,0.00,6,0,0,Yes
 Zone Information, ZONE OFFICE WHOLEBUILDING - LG OFFICE B  - STORY MID3,0.0,-2.03,-2.03,11.89,6.69E-017,1.78E-015,13.87,1,1,1,-2.87,2.87,-2.87,2.87,11.89,15.85,3.96,65.13,TARP,DOE-2,16.44,0.00,0.00,0.00,6,0,0,Yes
 Zone Information, ZONE OFFICE WHOLEBUILDING - LG OFFICE B  - STORY MID4,0.0,-2.03,-2.03,15.85,2.13E-016,1.81E-015,17.83,1,1,1,-2.87,2.87,-2.87,2.87,15.85,19.81,3.96,65.13,TARP,DOE-2,16.44,0.00,0.00,0.00,6,0,0,Yes
 Zone Information, ZONE OFFICE WHOLEBUILDING - LG OFFICE B  - STORY MID5,0.0,-2.03,-2.03,19.81,-6.26E-018,1.70E-015,21.79,1,1,1,-2.87,2.87,-2.87,2.87,19.81,23.77,3.96,65.13,TARP,DOE-2,16.44,0.00,0.00,0.00,6,0,0,Yes
 Zone Information, ZONE OFFICE WHOLEBUILDING - LG OFFICE B  - STORY MID6,0.0,-2.03,-2.03,23.77,-7.94E-017,1.70E-015,25.76,1,1,1,-2.87,2.87,-2.87,2.87,23.77,27.74,3.96,65.13,TARP,DOE-2,16.44,0.00,0.00,0.00,6,0,0,Yes
 Zone Information, ZONE OFFICE WHOLEBUILDING - LG OFFICE B  - STORY MID7,0.0,-2.03,-2.03,27.74,-4.28E-017,1.67E-015,29.72,1,1,1,-2.87,2.87,-2.87,2.87,27.74,31.70,3.96,65.13,TARP,DOE-2,16.44,0.00,0.00,0.00,6,0,0,Yes
 Zone Information, ZONE OFFICE WHOLEBUILDING - LG OFFICE B  - STORY MID8,0.0,-2.03,-2.03,31.70,-7.94E-017,1.63E-015,33.68,1,1,1,-2.87,2.87,-2.87,2.87,31.70,35.66,3.96,65.13,TARP,DOE-2,16.44,0.00,0.00,0.00,6,0,0,Yes
 Zone Information, ZONE OFFICE WHOLEBUILDING - LG OFFICE B  - STORY MID9,0.0,-2.03,-2.03,35.66,1.77E-016,1.63E-015,37.64,1,1,1,-2.87,2.87,-2.87,2.87,35.66,39.62,3.96,65.13,TARP,DOE-2,16.44,0.00,0.00,0.00,6,0,0,Yes
 Zone Information, ZONE OFFICE WHOLEBUILDING - LG OFFICE B  - STORY TOP,0.0,-2.03,-2.03,75.29,2.86E-016,1.48E-015,77.27,1,1,1,-2.87,2.87,-2.87,2.87,75.29,79.25,3.96,65.13,TARP,DOE-2,16.44,0.00,0.00,0.00,6,0,0,Yes
 Zone Information, ZONE OFFICE WHOLEBUILDING - LG OFFICE B END_A - STORY GROUND,0.0,-6.60,-2.03,0.00,-3.05,-3.05,1.98,1,1,1,-6.10,-4.44E-016,-6.10,-4.44E-016,0.00,3.96,3.96,73.45,TARP,DOE-2,18.54,16.06,13.17,2.89,6,1,0,Yes
 Zone Information, ZONE OFFICE WHOLEBUILDING - LG OFFICE B END_A - STORY MID,0.0,-6.60,-2.03,3.96,-3.05,-3.05,5.94,1,1,1,-6.10,-4.44E-016,-6.10,-4.44E-016,3.96,7.92,3.96,73.45,TARP,DOE-2,18.54,16.06,13.17,2.89,6,1,0,Yes
 Zone Information, ZONE OFFICE WHOLEBUILDING - LG OFFICE B END_A - STORY MID10,0.0,-6.60,-2.03,39.62,-3.05,-3.05,41.61,1,1,1,-6.10,-4.44E-016,-6.10,-4.44E-016,39.62,43.59,3.96,73.45,TARP,DOE-2,18.54,16.06,13.17,2.89,6,1,0,Yes
 Zone Information, ZONE OFFICE WHOLEBUILDING - LG OFFICE B END_A - STORY MID11,0.0,-6.60,-2.03,43.59,-3.05,-3.05,45.57,1,1,1,-6.10,-4.44E-016,-6.10,-4.44E-016,43.59,47.55,3.96,73.45,TARP,DOE-2,18.54,16.06,13.17,2.89,6,1,0,Yes
 Zone Information, ZONE OFFICE WHOLEBUILDING - LG OFFICE B END_A - STORY MID12,0.0,-6.60,-2.03,47.55,-3.05,-3.05,49.53,1,1,1,-6.10,-4.44E-016,-6.10,-4.44E-016,47.55,51.51,3.96,73.45,TARP,DOE-2,18.54,16.06,13.17,2.89,6,1,0,Yes
 Zone Information, ZONE OFFICE WHOLEBUILDING - LG OFFICE B END_A - STORY MID13,0.0,-6.60,-2.03,51.51,-3.05,-3.05,53.49,1,1,1,-6.10,-4.44E-016,-6.10,-4.44E-016,51.51,55.47,3.96,73.45,TARP,DOE-2,18.54,16.06,13.17,2.89,6,1,0,Yes
 Zone Information, ZONE OFFICE WHOLEBUILDING - LG OFFICE B END_A - STORY MID14,0.0,-6.60,-2.03,55.47,-3.05,-3.05,57.45,1,1,1,-6.10,-4.44E-016,-6.10,-4.44E-016,55.47,59.44,3.96,73.45,TARP,DOE-2,18.54,16.06,13.17,2.89,6,1,0,Yes
 Zone Information, ZONE OFFICE WHOLEBUILDING - LG OFFICE B END_A - STORY MID15,0.0,-6.60,-2.03,59.44,-3.05,-3.05,61.42,1,1,1,-6.10,-4.44E-016,-6.10,-4.44E-016,59.44,63.40,3.96,73.45,TARP,DOE-2,18.54,16.06,13.17,2.89,6,1,0,Yes
 Zone Information, ZONE OFFICE WHOLEBUILDING - LG OFFICE B END_A - STORY MID16,0.0,-6.60,-2.03,63.40,-3.05,-3.05,65.38,1,1,1,-6.10,-4.44E-016,-6.10,-4.44E-016,63.40,67.36,3.96,73.45,TARP,DOE-2,18.54,16.06,13.17,2.89,6,1,0,Yes
 Zone Information, ZONE OFFICE WHOLEBUILDING - LG OFFICE B END_A - STORY MID17,0.0,-6.60,-2.03,67.36,-3.05,-3.05,69.34,1,1,1,-6.10,-4.44E-016,-6.10,-4.44E-016,67.36,71.32,3.96,73.45,TARP,DOE-2,18.54,16.06,13.17,2.89,6,1,0,Yes
 Zone Information, ZONE OFFICE WHOLEBUILDING - LG OFFICE B END_A - STORY MID18,0.0,-6.60,-2.03,71.32,-3.05,-3.05,73.30,1,1,1,-6.10,-4.44E-016,-6.10,-4.44E-016,71.32,75.29,3.96,73.45,TARP,DOE-2,18.54,16.06,13.17,2.89,6,1,0,Yes
 Zone Information, ZONE OFFICE WHOLEBUILDING - LG OFFICE B END_A - STORY MID2,0.0,-6.60,-2.03,7.92,-3.05,-3.05,9.91,1,1,1,-6.10,-4.44E-016,-6.10,-4.44E-016,7.92,11.89,3.96,73.45,TARP,DOE-2,18.54,16.06,13.17,2.89,6,1,0,Yes
 Zone Information, ZONE OFFICE WHOLEBUILDING - LG OFFICE B END_A - STORY MID3,0.0,-6.60,-2.03,11.89,-3.05,-3.05,13.87,1,1,1,-6.10,-4.44E-016,-6.10,-4.44E-016,11.89,15.85,3.96,73.45,TARP,DOE-2,18.54,16.06,13.17,2.89,6,1,0,Yes
 Zone Information, ZONE OFFICE WHOLEBUILDING - LG OFFICE B END_A - STORY MID4,0.0,-6.60,-2.03,15.85,-3.05,-3.05,17.83,1,1,1,-6.10,-4.44E-016,-6.10,-4.44E-016,15.85,19.81,3.96,73.45,TARP,DOE-2,18.54,16.06,13.17,2.89,6,1,0,Yes
 Zone Information, ZONE OFFICE WHOLEBUILDING - LG OFFICE B END_A - STORY MID5,0.0,-6.60,-2.03,19.81,-3.05,-3.05,21.79,1,1,1,-6.10,-4.44E-016,-6.10,-4.44E-016,19.81,23.77,3.96,73.45,TARP,DOE-2,18.54,16.06,13.17,2.89,6,1,0,Yes
 Zone Information, ZONE OFFICE WHOLEBUILDING - LG OFFICE B END_A - STORY MID6,0.0,-6.60,-2.03,23.77,-3.05,-3.05,25.76,1,1,1,-6.10,-4.44E-016,-6.10,-4.44E-016,23.77,27.74,3.96,73.45,TARP,DOE-2,18.54,16.06,13.17,2.89,6,1,0,Yes
 Zone Information, ZONE OFFICE WHOLEBUILDING - LG OFFICE B END_A - STORY MID7,0.0,-6.60,-2.03,27.74,-3.05,-3.05,29.72,1,1,1,-6.10,-4.44E-016,-6.10,-4.44E-016,27.74,31.70,3.96,73.45,TARP,DOE-2,18.54,16.06,13.17,2.89,6,1,0,Yes
 Zone Information, ZONE OFFICE WHOLEBUILDING - LG OFFICE B END_A - STORY MID8,0.0,-6.60,-2.03,31.70,-3.05,-3.05,33.68,1,1,1,-6.10,-4.44E-016,-6.10,-4.44E-016,31.70,35.66,3.96,73.45,TARP,DOE-2,18.54,16.06,13.17,2.89,6,1,0,Yes
 Zone Information, ZONE OFFICE WHOLEBUILDING - LG OFFICE B END_A - STORY MID9,0.0,-6.60,-2.03,35.66,-3.05,-3.05,37.64,1,1,1,-6.10,-4.44E-016,-6.10,-4.44E-016,35.66,39.62,3.96,73.45,TARP,DOE-2,18.54,16.06,13.17,2.89,6,1,0,Yes
 Zone Information, ZONE OFFICE WHOLEBUILDING - LG OFFICE B END_A - STORY TOP,0.0,-6.60,-2.03,75.29,-3.05,-3.05,77.27,1,1,1,-6.10,-4.44E-016,-6.10,-4.44E-016,75.29,79.25,3.96,73.45,TARP,DOE-2,18.54,16.06,13.17,2.89,6,1,0,Yes
 Zone Information, ZONE OFFICE WHOLEBUILDING - LG OFFICE B END_B - STORY GROUND,0.0,2.03,-2.03,0.00,3.05,3.05,1.98,1,1,1,-1.55E-015,6.10,1.33E-015,6.10,0.00,3.96,3.96,73.45,TARP,DOE-2,18.54,16.06,13.17,2.89,6,1,0,Yes
 Zone Information, ZONE OFFICE WHOLEBUILDING - LG OFFICE B END_B - STORY MID,0.0,2.03,-2.03,3.96,3.05,3.05,5.94,1,1,1,-1.55E-015,6.10,1.33E-015,6.10,3.96,7.92,3.96,73.45,TARP,DOE-2,18.54,16.06,13.17,2.89,6,1,0,Yes
 Zone Information, ZONE OFFICE WHOLEBUILDING - LG OFFICE B END_B - STORY MID10,0.0,2.03,-2.03,39.62,3.05,3.05,41.61,1,1,1,-1.55E-015,6.10,1.33E-015,6.10,39.62,43.59,3.96,73.45,TARP,DOE-2,18.54,16.06,13.17,2.89,6,1,0,Yes
 Zone Information, ZONE OFFICE WHOLEBUILDING - LG OFFICE B END_B - STORY MID11,0.0,2.03,-2.03,43.59,3.05,3.05,45.57,1,1,1,-1.55E-015,6.10,1.33E-015,6.10,43.59,47.55,3.96,73.45,TARP,DOE-2,18.54,16.06,13.17,2.89,6,1,0,Yes
 Zone Information, ZONE OFFICE WHOLEBUILDING - LG OFFICE B END_B - STORY MID12,0.0,2.03,-2.03,47.55,3.05,3.05,49.53,1,1,1,-1.55E-015,6.10,1.33E-015,6.10,47.55,51.51,3.96,73.45,TARP,DOE-2,18.54,16.06,13.17,2.89,6,1,0,Yes
 Zone Information, ZONE OFFICE WHOLEBUILDING - LG OFFICE B END_B - STORY MID13,0.0,2.03,-2.03,51.51,3.05,3.05,53.49,1,1,1,-1.55E-015,6.10,1.33E-015,6.10,51.51,55.47,3.96,73.45,TARP,DOE-2,18.54,16.06,13.17,2.89,6,1,0,Yes
 Zone Information, ZONE OFFICE WHOLEBUILDING - LG OFFICE B END_B - STORY MID14,0.0,2.03,-2.03,55.47,3.05,3.05,57.45,1,1,1,-1.55E-015,6.10,1.33E-015,6.10,55.47,59.44,3.96,73.45,TARP,DOE-2,18.54,16.06,13.17,2.89,6,1,0,Yes
 Zone Information, ZONE OFFICE WHOLEBUILDING - LG OFFICE B END_B - STORY MID15,0.0,2.03,-2.03,59.44,3.05,3.05,61.42,1,1,1,-1.55E-015,6.10,1.33E-015,6.10,59.44,63.40,3.96,73.45,TARP,DOE-2,18.54,16.06,13.17,2.89,6,1,0,Yes
 Zone Information, ZONE OFFICE WHOLEBUILDING - LG OFFICE B END_B - STORY MID16,0.0,2.03,-2.03,63.40,3.05,3.05,65.38,1,1,1,-1.55E-015,6.10,1.33E-015,6.10,63.40,67.36,3.96,73.45,TARP,DOE-2,18.54,16.06,13.17,2.89,6,1,0,Yes
 Zone Information, ZONE OFFICE WHOLEBUILDING - LG OFFICE B END_B - STORY MID17,0.0,2.03,-2.03,67.36,3.05,3.05,69.34,1,1,1,-1.55E-015,6.10,1.33E-015,6.10,67.36,71.32,3.96,73.45,TARP,DOE-2,18.54,16.06,13.17,2.89,6,1,0,Yes
 Zone Information, ZONE OFFICE WHOLEBUILDING - LG OFFICE B END_B - STORY MID18,0.0,2.03,-2.03,71.32,3.05,3.05,73.30,1,1,1,-1.55E-015,6.10,1.33E-015,6.10,71.32,75.29,3.96,73.45,TARP,DOE-2,18.54,16.06,13.17,2.89,6,1,0,Yes
 Zone Information, ZONE OFFICE WHOLEBUILDING - LG OFFICE B END_B - STORY MID2,0.0,2.03,-2.03,7.92,3.05,3.05,9.91,1,1,1,-1.55E-015,6.10,1.33E-015,6.10,7.92,11.89,3.96,73.45,TARP,DOE-2,18.54,16.06,13.17,2.89,6,1,0,Yes
 Zone Information, ZONE OFFICE WHOLEBUILDING - LG OFFICE B END_B - STORY MID3,0.0,2.03,-2.03,11.89,3.05,3.05,13.87,1,1,1,-1.55E-015,6.10,1.33E-015,6.10,11.89,15.85,3.96,73.45,TARP,DOE-2,18.54,16.06,13.17,2.89,6,1,0,Yes
 Zone Information, ZONE OFFICE WHOLEBUILDING - LG OFFICE B END_B - STORY MID4,0.0,2.03,-2.03,15.85,3.05,3.05,17.83,1,1,1,-1.55E-015,6.10,1.33E-015,6.10,15.85,19.81,3.96,73.45,TARP,DOE-2,18.54,16.06,13.17,2.89,6,1,0,Yes
 Zone Information, ZONE OFFICE WHOLEBUILDING - LG OFFICE B END_B - STORY MID5,0.0,2.03,-2.03,19.81,3.05,3.05,21.79,1,1,1,-1.55E-015,6.10,1.33E-015,6.10,19.81,23.77,3.96,73.45,TARP,DOE-2,18.54,16.06,13.17,2.89,6,1,0,Yes
 Zone Information, ZONE OFFICE WHOLEBUILDING - LG OFFICE B END_B - STORY MID6,0.0,2.03,-2.03,23.77,3.05,3.05,25.76,1,1,1,-1.55E-015,6.10,1.33E-015,6.10,23.77,27.74,3.96,73.45,TARP,DOE-2,18.54,16.06,13.17,2.89,6,1,0,Yes
 Zone Information, ZONE OFFICE WHOLEBUILDING - LG OFFICE B END_B - STORY MID7,0.0,2.03,-2.03,27.74,3.05,3.05,29.72,1,1,1,-1.55E-015,6.10,1.33E-015,6.10,27.74,31.70,3.96,73.45,TARP,DOE-2,18.54,16.06,13.17,2.89,6,1,0,Yes
 Zone Information, ZONE OFFICE WHOLEBUILDING - LG OFFICE B END_B - STORY MID8,0.0,2.03,-2.03,31.70,3.05,3.05,33.68,1,1,1,-1.55E-015,6.10,1.33E-015,6.10,31.70,35.66,3.96,73.45,TARP,DOE-2,18.54,16.06,13.17,2.89,6,1,0,Yes
 Zone Information, ZONE OFFICE WHOLEBUILDING - LG OFFICE B END_B - STORY MID9,0.0,2.03,-2.03,35.66,3.05,3.05,37.64,1,1,1,-1.55E-015,6.10,1.33E-015,6.10,35.66,39.62,3.96,73.45,TARP,DOE-2,18.54,16.06,13.17,2.89,6,1,0,Yes
 Zone Information, ZONE OFFICE WHOLEBUILDING - LG OFFICE B END_B - STORY TOP,0.0,2.03,-2.03,75.29,3.05,3.05,77.27,1,1,1,-1.55E-015,6.10,1.33E-015,6.10,75.29,79.25,3.96,73.45,TARP,DOE-2,18.54,16.06,13.17,2.89,6,1,0,Yes
 Zone Information, ZONE OFFICE WHOLEBUILDING - LG OFFICE C  - STORY GROUND,0.0,-2.03,2.03,0.00,-3.05,3.05,1.98,1,1,1,-6.10,8.88E-016,-6.66E-016,6.10,0.00,3.96,3.96,73.45,TARP,DOE-2,18.54,16.06,13.17,2.89,6,1,0,Yes
 Zone Information, ZONE OFFICE WHOLEBUILDING - LG OFFICE C  - STORY MID,0.0,-2.03,2.03,3.96,-3.05,3.05,5.94,1,1,1,-6.10,8.88E-016,-6.66E-016,6.10,3.96,7.92,3.96,73.45,TARP,DOE-2,18.54,16.06,13.17,2.89,6,1,0,Yes
 Zone Information, ZONE OFFICE WHOLEBUILDING - LG OFFICE C  - STORY MID10,0.0,-2.03,2.03,39.62,-3.05,3.05,41.61,1,1,1,-6.10,8.88E-016,-6.66E-016,6.10,39.62,43.59,3.96,73.45,TARP,DOE-2,18.54,16.06,13.17,2.89,6,1,0,Yes
 Zone Information, ZONE OFFICE WHOLEBUILDING - LG OFFICE C  - STORY MID11,0.0,-2.03,2.03,43.59,-3.05,3.05,45.57,1,1,1,-6.10,8.88E-016,-6.66E-016,6.10,43.59,47.55,3.96,73.45,TARP,DOE-2,18.54,16.06,13.17,2.89,6,1,0,Yes
 Zone Information, ZONE OFFICE WHOLEBUILDING - LG OFFICE C  - STORY MID12,0.0,-2.03,2.03,47.55,-3.05,3.05,49.53,1,1,1,-6.10,8.88E-016,-6.66E-016,6.10,47.55,51.51,3.96,73.45,TARP,DOE-2,18.54,16.06,13.17,2.89,6,1,0,Yes
 Zone Information, ZONE OFFICE WHOLEBUILDING - LG OFFICE C  - STORY MID13,0.0,-2.03,2.03,51.51,-3.05,3.05,53.49,1,1,1,-6.10,8.88E-016,-6.66E-016,6.10,51.51,55.47,3.96,73.45,TARP,DOE-2,18.54,16.06,13.17,2.89,6,1,0,Yes
 Zone Information, ZONE OFFICE WHOLEBUILDING - LG OFFICE C  - STORY MID14,0.0,-2.03,2.03,55.47,-3.05,3.05,57.45,1,1,1,-6.10,8.88E-016,-6.66E-016,6.10,55.47,59.44,3.96,73.45,TARP,DOE-2,18.54,16.06,13.17,2.89,6,1,0,Yes
 Zone Information, ZONE OFFICE WHOLEBUILDING - LG OFFICE C  - STORY MID15,0.0,-2.03,2.03,59.44,-3.05,3.05,61.42,1,1,1,-6.10,8.88E-016,-6.66E-016,6.10,59.44,63.40,3.96,73.45,TARP,DOE-2,18.54,16.06,13.17,2.89,6,1,0,Yes
 Zone Information, ZONE OFFICE WHOLEBUILDING - LG OFFICE C  - STORY MID16,0.0,-2.03,2.03,63.40,-3.05,3.05,65.38,1,1,1,-6.10,8.88E-016,-6.66E-016,6.10,63.40,67.36,3.96,73.45,TARP,DOE-2,18.54,16.06,13.17,2.89,6,1,0,Yes
 Zone Information, ZONE OFFICE WHOLEBUILDING - LG OFFICE C  - STORY MID17,0.0,-2.03,2.03,67.36,-3.05,3.05,69.34,1,1,1,-6.10,8.88E-016,-6.66E-016,6.10,67.36,71.32,3.96,73.45,TARP,DOE-2,18.54,16.06,13.17,2.89,6,1,0,Yes
 Zone Information, ZONE OFFICE WHOLEBUILDING - LG OFFICE C  - STORY MID18,0.0,-2.03,2.03,71.32,-3.05,3.05,73.30,1,1,1,-6.10,8.88E-016,-6.66E-016,6.10,71.32,75.29,3.96,73.45,TARP,DOE-2,18.54,16.06,13.17,2.89,6,1,0,Yes
 Zone Information, ZONE OFFICE WHOLEBUILDING - LG OFFICE C  - STORY MID2,0.0,-2.03,2.03,7.92,-3.05,3.05,9.91,1,1,1,-6.10,8.88E-016,-6.66E-016,6.10,7.92,11.89,3.96,73.45,TARP,DOE-2,18.54,16.06,13.17,2.89,6,1,0,Yes
 Zone Information, ZONE OFFICE WHOLEBUILDING - LG OFFICE C  - STORY MID3,0.0,-2.03,2.03,11.89,-3.05,3.05,13.87,1,1,1,-6.10,8.88E-016,-6.66E-016,6.10,11.89,15.85,3.96,73.45,TARP,DOE-2,18.54,16.06,13.17,2.89,6,1,0,Yes
 Zone Information, ZONE OFFICE WHOLEBUILDING - LG OFFICE C  - STORY MID4,0.0,-2.03,2.03,15.85,-3.05,3.05,17.83,1,1,1,-6.10,8.88E-016,-6.66E-016,6.10,15.85,19.81,3.96,73.45,TARP,DOE-2,18.54,16.06,13.17,2.89,6,1,0,Yes
 Zone Information, ZONE OFFICE WHOLEBUILDING - LG OFFICE C  - STORY MID5,0.0,-2.03,2.03,19.81,-3.05,3.05,21.79,1,1,1,-6.10,8.88E-016,-6.66E-016,6.10,19.81,23.77,3.96,73.45,TARP,DOE-2,18.54,16.06,13.17,2.89,6,1,0,Yes
 Zone Information, ZONE OFFICE WHOLEBUILDING - LG OFFICE C  - STORY MID6,0.0,-2.03,2.03,23.77,-3.05,3.05,25.76,1,1,1,-6.10,8.88E-016,-6.66E-016,6.10,23.77,27.74,3.96,73.45,TARP,DOE-2,18.54,16.06,13.17,2.89,6,1,0,Yes
 Zone Information, ZONE OFFICE WHOLEBUILDING - LG OFFICE C  - STORY MID7,0.0,-2.03,2.03,27.74,-3.05,3.05,29.72,1,1,1,-6.10,8.88E-016,-6.66E-016,6.10,27.74,31.70,3.96,73.45,TARP,DOE-2,18.54,16.06,13.17,2.89,6,1,0,Yes
 Zone Information, ZONE OFFICE WHOLEBUILDING - LG OFFICE C  - STORY MID8,0.0,-2.03,2.03,31.70,-3.05,3.05,33.68,1,1,1,-6.10,8.88E-016,-6.66E-016,6.10,31.70,35.66,3.96,73.45,TARP,DOE-2,18.54,16.06,13.17,2.89,6,1,0,Yes
 Zone Information, ZONE OFFICE WHOLEBUILDING - LG OFFICE C  - STORY MID9,0.0,-2.03,2.03,35.66,-3.05,3.05,37.64,1,1,1,-6.10,8.88E-016,-6.66E-016,6.10,35.66,39.62,3.96,73.45,TARP,DOE-2,18.54,16.06,13.17,2.89,6,1,0,Yes
 Zone Information, ZONE OFFICE WHOLEBUILDING - LG OFFICE C  - STORY TOP,0.0,-2.03,2.03,75.29,-3.05,3.05,77.27,1,1,1,-6.10,8.88E-016,-6.66E-016,6.10,75.29,79.25,3.96,73.45,TARP,DOE-2,18.54,16.06,13.17,2.89,6,1,0,Yes
 Zone Information, ZONE OFFICE WHOLEBUILDING - LG OFFICE C END_A - STORY GROUND,0.0,-6.60,2.03,0.00,-6.10,-1.04E-015,1.98,1,1,1,-9.33,-2.87,-3.23,3.23,0.00,3.96,3.96,82.83,TARP,DOE-2,20.90,36.23,29.71,6.52,6,2,0,Yes
 Zone Information, ZONE OFFICE WHOLEBUILDING - LG OFFICE C END_A - STORY MID,0.0,-6.60,2.03,3.96,-6.10,-1.01E-015,5.94,1,1,1,-9.33,-2.87,-3.23,3.23,3.96,7.92,3.96,82.83,TARP,DOE-2,20.90,36.23,29.71,6.52,6,2,0,Yes
 Zone Information, ZONE OFFICE WHOLEBUILDING - LG OFFICE C END_A - STORY MID10,0.0,-6.60,2.03,39.62,-6.10,-9.51E-016,41.61,1,1,1,-9.33,-2.87,-3.23,3.23,39.62,43.59,3.96,82.83,TARP,DOE-2,20.90,36.23,29.71,6.52,6,2,0,Yes
 Zone Information, ZONE OFFICE WHOLEBUILDING - LG OFFICE C END_A - STORY MID11,0.0,-6.60,2.03,43.59,-6.10,-1.01E-015,45.57,1,1,1,-9.33,-2.87,-3.23,3.23,43.59,47.55,3.96,82.83,TARP,DOE-2,20.90,36.23,29.71,6.52,6,2,0,Yes
 Zone Information, ZONE OFFICE WHOLEBUILDING - LG OFFICE C END_A - STORY MID12,0.0,-6.60,2.03,47.55,-6.10,-5.47E-016,49.53,1,1,1,-9.33,-2.87,-3.23,3.23,47.55,51.51,3.96,82.83,TARP,DOE-2,20.90,36.23,29.71,6.52,6,2,0,Yes
 Zone Information, ZONE OFFICE WHOLEBUILDING - LG OFFICE C END_A - STORY MID13,0.0,-6.60,2.03,51.51,-6.10,-1.45E-015,53.49,1,1,1,-9.33,-2.87,-3.23,3.23,51.51,55.47,3.96,82.83,TARP,DOE-2,20.90,36.23,29.71,6.52,6,2,0,Yes
 Zone Information, ZONE OFFICE WHOLEBUILDING - LG OFFICE C END_A - STORY MID14,0.0,-6.60,2.03,55.47,-6.10,-1.95E-015,57.45,1,1,1,-9.33,-2.87,-3.23,3.23,55.47,59.44,3.96,82.83,TARP,DOE-2,20.90,36.23,29.71,6.52,6,2,0,Yes
 Zone Information, ZONE OFFICE WHOLEBUILDING - LG OFFICE C END_A - STORY MID15,0.0,-6.60,2.03,59.44,-6.10,-9.82E-016,61.42,1,1,1,-9.33,-2.87,-3.23,3.23,59.44,63.40,3.96,82.83,TARP,DOE-2,20.90,36.23,29.71,6.52,6,2,0,Yes
 Zone Information, ZONE OFFICE WHOLEBUILDING - LG OFFICE C END_A - STORY MID16,0.0,-6.60,2.03,63.40,-6.10,-5.16E-016,65.38,1,1,1,-9.33,-2.87,-3.23,3.23,63.40,67.36,3.96,82.83,TARP,DOE-2,20.90,36.23,29.71,6.52,6,2,0,Yes
 Zone Information, ZONE OFFICE WHOLEBUILDING - LG OFFICE C END_A - STORY MID17,0.0,-6.60,2.03,67.36,-6.10,-1.63E-015,69.34,1,1,1,-9.33,-2.87,-3.23,3.23,67.36,71.32,3.96,82.83,TARP,DOE-2,20.90,36.23,29.71,6.52,6,2,0,Yes
 Zone Information, ZONE OFFICE WHOLEBUILDING - LG OFFICE C END_A - STORY MID18,0.0,-6.60,2.03,71.32,-6.10,-1.29E-015,73.30,1,1,1,-9.33,-2.87,-3.23,3.23,71.32,75.29,3.96,82.83,TARP,DOE-2,20.90,36.23,29.71,6.52,6,2,0,Yes
 Zone Information, ZONE OFFICE WHOLEBUILDING - LG OFFICE C END_A - STORY MID2,0.0,-6.60,2.03,7.92,-6.10,-1.20E-015,9.91,1,1,1,-9.33,-2.87,-3.23,3.23,7.92,11.89,3.96,82.83,TARP,DOE-2,20.90,36.23,29.71,6.52,6,2,0,Yes
 Zone Information, ZONE OFFICE WHOLEBUILDING - LG OFFICE C END_A - STORY MID3,0.0,-6.60,2.03,11.89,-6.10,-1.04E-015,13.87,1,1,1,-9.33,-2.87,-3.23,3.23,11.89,15.85,3.96,82.83,TARP,DOE-2,20.90,36.23,29.71,6.52,6,2,0,Yes
 Zone Information, ZONE OFFICE WHOLEBUILDING - LG OFFICE C END_A - STORY MID4,0.0,-6.60,2.03,15.85,-6.10,-1.14E-015,17.83,1,1,1,-9.33,-2.87,-3.23,3.23,15.85,19.81,3.96,82.83,TARP,DOE-2,20.90,36.23,29.71,6.52,6,2,0,Yes
 Zone Information, ZONE OFFICE WHOLEBUILDING - LG OFFICE C END_A - STORY MID5,0.0,-6.60,2.03,19.81,-6.10,-1.11E-015,21.79,1,1,1,-9.33,-2.87,-3.23,3.23,19.81,23.77,3.96,82.83,TARP,DOE-2,20.90,36.23,29.71,6.52,6,2,0,Yes
 Zone Information, ZONE OFFICE WHOLEBUILDING - LG OFFICE C END_A - STORY MID6,0.0,-6.60,2.03,23.77,-6.10,-6.40E-016,25.76,1,1,1,-9.33,-2.87,-3.23,3.23,23.77,27.74,3.96,82.83,TARP,DOE-2,20.90,36.23,29.71,6.52,6,2,0,Yes
 Zone Information, ZONE OFFICE WHOLEBUILDING - LG OFFICE C END_A - STORY MID7,0.0,-6.60,2.03,27.74,-6.10,-1.57E-015,29.72,1,1,1,-9.33,-2.87,-3.23,3.23,27.74,31.70,3.96,82.83,TARP,DOE-2,20.90,36.23,29.71,6.52,6,2,0,Yes
 Zone Information, ZONE OFFICE WHOLEBUILDING - LG OFFICE C END_A - STORY MID8,0.0,-6.60,2.03,31.70,-6.10,-1.01E-015,33.68,1,1,1,-9.33,-2.87,-3.23,3.23,31.70,35.66,3.96,82.83,TARP,DOE-2,20.90,36.23,29.71,6.52,6,2,0,Yes
 Zone Information, ZONE OFFICE WHOLEBUILDING - LG OFFICE C END_A - STORY MID9,0.0,-6.60,2.03,35.66,-6.10,-1.32E-015,37.64,1,1,1,-9.33,-2.87,-3.23,3.23,35.66,39.62,3.96,82.83,TARP,DOE-2,20.90,36.23,29.71,6.52,6,2,0,Yes
 Zone Information, ZONE OFFICE WHOLEBUILDING - LG OFFICE C END_A - STORY TOP,0.0,-6.60,2.03,75.29,-6.10,-1.54E-015,77.27,1,1,1,-9.33,-2.87,-3.23,3.23,75.29,79.25,3.96,82.83,TARP,DOE-2,20.90,36.23,29.71,6.52,6,2,0,Yes
 Zone Information, ZONE OFFICE WHOLEBUILDING - LG OFFICE C END_B - STORY GROUND,0.0,2.03,2.03,0.00,-1.38E-015,6.10,1.98,1,1,1,-3.23,3.23,2.87,9.33,0.00,3.96,3.96,82.83,TARP,DOE-2,20.90,36.23,29.71,6.52,6,2,0,Yes
 Zone Information, ZONE OFFICE WHOLEBUILDING - LG OFFICE C END_B - STORY MID,0.0,2.03,2.03,3.96,-1.41E-015,6.10,5.94,1,1,1,-3.23,3.23,2.87,9.33,3.96,7.92,3.96,82.83,TARP,DOE-2,20.90,36.23,29.71,6.52,6,2,0,Yes
 Zone Information, ZONE OFFICE WHOLEBUILDING - LG OFFICE C END_B - STORY MID10,0.0,2.03,2.03,39.62,-2.56E-015,6.10,41.61,1,1,1,-3.23,3.23,2.87,9.33,39.62,43.59,3.96,82.83,TARP,DOE-2,20.90,36.23,29.71,6.52,6,2,0,Yes
 Zone Information, ZONE OFFICE WHOLEBUILDING - LG OFFICE C END_B - STORY MID11,0.0,2.03,2.03,43.59,-1.15E-017,6.10,45.57,1,1,1,-3.23,3.23,2.87,9.33,43.59,47.55,3.96,82.83,TARP,DOE-2,20.90,36.23,29.71,6.52,6,2,0,Yes
 Zone Information, ZONE OFFICE WHOLEBUILDING - LG OFFICE C END_B - STORY MID12,0.0,2.03,2.03,47.55,-2.37E-015,6.10,49.53,1,1,1,-3.23,3.23,2.87,9.33,47.55,51.51,3.96,82.83,TARP,DOE-2,20.90,36.23,29.71,6.52,6,2,0,Yes
 Zone Information, ZONE OFFICE WHOLEBUILDING - LG OFFICE C END_B - STORY MID13,0.0,2.03,2.03,51.51,-1.32E-015,6.10,53.49,1,1,1,-3.23,3.23,2.87,9.33,51.51,55.47,3.96,82.83,TARP,DOE-2,20.90,36.23,29.71,6.52,6,2,0,Yes
 Zone Information, ZONE OFFICE WHOLEBUILDING - LG OFFICE C END_B - STORY MID14,0.0,2.03,2.03,55.47,-9.13E-016,6.10,57.45,1,1,1,-3.23,3.23,2.87,9.33,55.47,59.44,3.96,82.83,TARP,DOE-2,20.90,36.23,29.71,6.52,6,2,0,Yes
 Zone Information, ZONE OFFICE WHOLEBUILDING - LG OFFICE C END_B - STORY MID15,0.0,2.03,2.03,59.44,-1.85E-015,6.10,61.42,1,1,1,-3.23,3.23,2.87,9.33,59.44,63.40,3.96,82.83,TARP,DOE-2,20.90,36.23,29.71,6.52,6,2,0,Yes
 Zone Information, ZONE OFFICE WHOLEBUILDING - LG OFFICE C END_B - STORY MID16,0.0,2.03,2.03,63.40,-1.50E-015,6.10,65.38,1,1,1,-3.23,3.23,2.87,9.33,63.40,67.36,3.96,82.83,TARP,DOE-2,20.90,36.23,29.71,6.52,6,2,0,Yes
 Zone Information, ZONE OFFICE WHOLEBUILDING - LG OFFICE C END_B - STORY MID17,0.0,2.03,2.03,67.36,-1.66E-015,6.10,69.34,1,1,1,-3.23,3.23,2.87,9.33,67.36,71.32,3.96,82.83,TARP,DOE-2,20.90,36.23,29.71,6.52,6,2,0,Yes
 Zone Information, ZONE OFFICE WHOLEBUILDING - LG OFFICE C END_B - STORY MID18,0.0,2.03,2.03,71.32,-1.22E-015,6.10,73.30,1,1,1,-3.23,3.23,2.87,9.33,71.32,75.29,3.96,82.83,TARP,DOE-2,20.90,36.23,29.71,6.52,6,2,0,Yes
 Zone Information, ZONE OFFICE WHOLEBUILDING - LG OFFICE C END_B - STORY MID2,0.0,2.03,2.03,7.92,-1.29E-015,6.10,9.91,1,1,1,-3.23,3.23,2.87,9.33,7.92,11.89,3.96,82.83,TARP,DOE-2,20.90,36.23,29.71,6.52,6,2,0,Yes
 Zone Information, ZONE OFFICE WHOLEBUILDING - LG OFFICE C END_B - STORY MID3,0.0,2.03,2.03,11.89,-1.47E-015,6.10,13.87,1,1,1,-3.23,3.23,2.87,9.33,11.89,15.85,3.96,82.83,TARP,DOE-2,20.90,36.23,29.71,6.52,6,2,0,Yes
 Zone Information, ZONE OFFICE WHOLEBUILDING - LG OFFICE C END_B - STORY MID4,0.0,2.03,2.03,15.85,-9.44E-016,6.10,17.83,1,1,1,-3.23,3.23,2.87,9.33,15.85,19.81,3.96,82.83,TARP,DOE-2,20.90,36.23,29.71,6.52,6,2,0,Yes
 Zone Information, ZONE OFFICE WHOLEBUILDING - LG OFFICE C END_B - STORY MID5,0.0,2.03,2.03,19.81,-1.32E-015,6.10,21.79,1,1,1,-3.23,3.23,2.87,9.33,19.81,23.77,3.96,82.83,TARP,DOE-2,20.90,36.23,29.71,6.52,6,2,0,Yes
 Zone Information, ZONE OFFICE WHOLEBUILDING - LG OFFICE C END_B - STORY MID6,0.0,2.03,2.03,23.77,-1.78E-015,6.10,25.76,1,1,1,-3.23,3.23,2.87,9.33,23.77,27.74,3.96,82.83,TARP,DOE-2,20.90,36.23,29.71,6.52,6,2,0,Yes
 Zone Information, ZONE OFFICE WHOLEBUILDING - LG OFFICE C END_B - STORY MID7,0.0,2.03,2.03,27.74,-1.41E-015,6.10,29.72,1,1,1,-3.23,3.23,2.87,9.33,27.74,31.70,3.96,82.83,TARP,DOE-2,20.90,36.23,29.71,6.52,6,2,0,Yes
 Zone Information, ZONE OFFICE WHOLEBUILDING - LG OFFICE C END_B - STORY MID8,0.0,2.03,2.03,31.70,-1.50E-015,6.10,33.68,1,1,1,-3.23,3.23,2.87,9.33,31.70,35.66,3.96,82.83,TARP,DOE-2,20.90,36.23,29.71,6.52,6,2,0,Yes
 Zone Information, ZONE OFFICE WHOLEBUILDING - LG OFFICE C END_B - STORY MID9,0.0,2.03,2.03,35.66,-5.09E-016,6.10,37.64,1,1,1,-3.23,3.23,2.87,9.33,35.66,39.62,3.96,82.83,TARP,DOE-2,20.90,36.23,29.71,6.52,6,2,0,Yes
 Zone Information, ZONE OFFICE WHOLEBUILDING - LG OFFICE C END_B - STORY TOP,0.0,2.03,2.03,75.29,-1.36E-016,6.10,77.27,1,1,1,-3.23,3.23,2.87,9.33,75.29,79.25,3.96,82.83,TARP,DOE-2,20.90,36.23,29.71,6.52,6,2,0,Yes
! <Zone Internal Gains Nominal>,Zone Name, Floor Area {m2},# Occupants,Area per Occupant {m2/person},Occupant per Area {person/m2},Interior Lighting {W/m2},Electric Load {W/m2},Gas Load {W/m2},Other Load {W/m2},Hot Water Eq {W/m2},Steam Equipment {W/m2},Sum Loads per Area {W/m2},Outdoor Controlled Baseboard Heat
 Zone Internal Gains Nominal, ZONE OFFICE WHOLEBUILDING - LG OFFICE A  - STORY GROUND,18.54,1.0,18.581,5.382E-002,16.953,10.764,0.000,0.000,0.000,0.000,27.717,No
 Zone Internal Gains Nominal, ZONE OFFICE WHOLEBUILDING - LG OFFICE A  - STORY MID,18.54,1.0,18.581,5.382E-002,16.953,10.764,0.000,0.000,0.000,0.000,27.717,No
 Zone Internal Gains Nominal, ZONE OFFICE WHOLEBUILDING - LG OFFICE A  - STORY MID10,18.54,1.0,18.581,5.382E-002,16.953,10.764,0.000,0.000,0.000,0.000,27.717,No
 Zone Internal Gains Nominal, ZONE OFFICE WHOLEBUILDING - LG OFFICE A  - STORY MID11,18.54,1.0,18.581,5.382E-002,16.953,10.764,0.000,0.000,0.000,0.000,27.717,No
 Zone Internal Gains Nominal, ZONE OFFICE WHOLEBUILDING - LG OFFICE A  - STORY MID12,18.54,1.0,18.581,5.382E-002,16.953,10.764,0.000,0.000,0.000,0.000,27.717,No
 Zone Internal Gains Nominal, ZONE OFFICE WHOLEBUILDING - LG OFFICE A  - STORY MID13,18.54,1.0,18.581,5.382E-002,16.953,10.764,0.000,0.000,0.000,0.000,27.717,No
 Zone Internal Gains Nominal, ZONE OFFICE WHOLEBUILDING - LG OFFICE A  - STORY MID14,18.54,1.0,18.581,5.382E-002,16.953,10.764,0.000,0.000,0.000,0.000,27.717,No
 Zone Internal Gains Nominal, ZONE OFFICE WHOLEBUILDING - LG OFFICE A  - STORY MID15,18.54,1.0,18.581,5.382E-002,16.953,10.764,0.000,0.000,0.000,0.000,27.717,No
 Zone Internal Gains Nominal, ZONE OFFICE WHOLEBUILDING - LG OFFICE A  - STORY MID16,18.54,1.0,18.581,5.382E-002,16.953,10.764,0.000,0.000,0.000,0.000,27.717,No
 Zone Internal Gains Nominal, ZONE OFFICE WHOLEBUILDING - LG OFFICE A  - STORY MID17,18.54,1.0,18.581,5.382E-002,16.953,10.764,0.000,0.000,0.000,0.000,27.717,No
 Zone Internal Gains Nominal, ZONE OFFICE WHOLEBUILDING - LG OFFICE A  - STORY MID18,18.54,1.0,18.581,5.382E-002,16.953,10.764,0.000,0.000,0.000,0.000,27.717,No
 Zone Internal Gains Nominal, ZONE OFFICE WHOLEBUILDING - LG OFFICE A  - STORY MID2,18.54,1.0,18.581,5.382E-002,16.953,10.764,0.000,0.000,0.000,0.000,27.717,No
 Zone Internal Gains Nominal, ZONE OFFICE WHOLEBUILDING - LG OFFICE A  - STORY MID3,18.54,1.0,18.581,5.382E-002,16.953,10.764,0.000,0.000,0.000,0.000,27.717,No
 Zone Internal Gains Nominal, ZONE OFFICE WHOLEBUILDING - LG OFFICE A  - STORY MID4,18.54,1.0,18.581,5.382E-002,16.953,10.764,0.000,0.000,0.000,0.000,27.717,No
 Zone Internal Gains Nominal, ZONE OFFICE WHOLEBUILDING - LG OFFICE A  - STORY MID5,18.54,1.0,18.581,5.382E-002,16.953,10.764,0.000,0.000,0.000,0.000,27.717,No
 Zone Internal Gains Nominal, ZONE OFFICE WHOLEBUILDING - LG OFFICE A  - STORY MID6,18.54,1.0,18.581,5.382E-002,16.953,10.764,0.000,0.000,0.000,0.000,27.717,No
 Zone Internal Gains Nominal, ZONE OFFICE WHOLEBUILDING - LG OFFICE A  - STORY MID7,18.54,1.0,18.581,5.382E-002,16.953,10.764,0.000,0.000,0.000,0.000,27.717,No
 Zone Internal Gains Nominal, ZONE OFFICE WHOLEBUILDING - LG OFFICE A  - STORY MID8,18.54,1.0,18.581,5.382E-002,16.953,10.764,0.000,0.000,0.000,0.000,27.717,No
 Zone Internal Gains Nominal, ZONE OFFICE WHOLEBUILDING - LG OFFICE A  - STORY MID9,18.54,1.0,18.581,5.382E-002,16.953,10.764,0.000,0.000,0.000,0.000,27.717,No
 Zone Internal Gains Nominal, ZONE OFFICE WHOLEBUILDING - LG OFFICE A  - STORY TOP,18.54,1.0,18.581,5.382E-002,16.953,10.764,0.000,0.000,0.000,0.000,27.717,No
 Zone Internal Gains Nominal, ZONE OFFICE WHOLEBUILDING - LG OFFICE A END_A - STORY GROUND,20.90,1.1,18.581,5.382E-002,16.953,10.764,0.000,0.000,0.000,0.000,27.717,No
 Zone Internal Gains Nominal, ZONE OFFICE WHOLEBUILDING - LG OFFICE A END_A - STORY MID,20.90,1.1,18.581,5.382E-002,16.953,10.764,0.000,0.000,0.000,0.000,27.717,No
 Zone Internal Gains Nominal, ZONE OFFICE WHOLEBUILDING - LG OFFICE A END_A - STORY MID10,20.90,1.1,18.581,5.382E-002,16.953,10.764,0.000,0.000,0.000,0.000,27.717,No
 Zone Internal Gains Nominal, ZONE OFFICE WHOLEBUILDING - LG OFFICE A END_A - STORY MID11,20.90,1.1,18.581,5.382E-002,16.953,10.764,0.000,0.000,0.000,0.000,27.717,No
 Zone Internal Gains Nominal, ZONE OFFICE WHOLEBUILDING - LG OFFICE A END_A - STORY MID12,20.90,1.1,18.581,5.382E-002,16.953,10.764,0.000,0.000,0.000,0.000,27.717,No
 Zone Internal Gains Nominal, ZONE OFFICE WHOLEBUILDING - LG OFFICE A END_A - STORY MID13,20.90,1.1,18.581,5.382E-002,16.953,10.764,0.000,0.000,0.000,0.000,27.717,No
 Zone Internal Gains Nominal, ZONE OFFICE WHOLEBUILDING - LG OFFICE A END_A - STORY MID14,20.90,1.1,18.581,5.382E-002,16.953,10.764,0.000,0.000,0.000,0.000,27.717,No
 Zone Internal Gains Nominal, ZONE OFFICE WHOLEBUILDING - LG OFFICE A END_A - STORY MID15,20.90,1.1,18.581,5.382E-002,16.953,10.764,0.000,0.000,0.000,0.000,27.717,No
 Zone Internal Gains Nominal, ZONE OFFICE WHOLEBUILDING - LG OFFICE A END_A - STORY MID16,20.90,1.1,18.581,5.382E-002,16.953,10.764,0.000,0.000,0.000,0.000,27.717,No
 Zone Internal Gains Nominal, ZONE OFFICE WHOLEBUILDING - LG OFFICE A END_A - STORY MID17,20.90,1.1,18.581,5.382E-002,16.953,10.764,0.000,0.000,0.000,0.000,27.717,No
 Zone Internal Gains Nominal, ZONE OFFICE WHOLEBUILDING - LG OFFICE A END_A - STORY MID18,20.90,1.1,18.581,5.382E-002,16.953,10.764,0.000,0.000,0.000,0.000,27.717,No
 Zone Internal Gains Nominal, ZONE OFFICE WHOLEBUILDING - LG OFFICE A END_A - STORY MID2,20.90,1.1,18.581,5.382E-002,16.953,10.764,0.000,0.000,0.000,0.000,27.717,No
 Zone Internal Gains Nominal, ZONE OFFICE WHOLEBUILDING - LG OFFICE A END_A - STORY MID3,20.90,1.1,18.581,5.382E-002,16.953,10.764,0.000,0.000,0.000,0.000,27.717,No
 Zone Internal Gains Nominal, ZONE OFFICE WHOLEBUILDING - LG OFFICE A END_A - STORY MID4,20.90,1.1,18.581,5.382E-002,16.953,10.764,0.000,0.000,0.000,0.000,27.717,No
 Zone Internal Gains Nominal, ZONE OFFICE WHOLEBUILDING - LG OFFICE A END_A - STORY MID5,20.90,1.1,18.581,5.382E-002,16.953,10.764,0.000,0.000,0.000,0.000,27.717,No
 Zone Internal Gains Nominal, ZONE OFFICE WHOLEBUILDING - LG OFFICE A END_A - STORY MID6,20.90,1.1,18.581,5.382E-002,16.953,10.764,0.000,0.000,0.000,0.000,27.717,No
 Zone Internal Gains Nominal, ZONE OFFICE WHOLEBUILDING - LG OFFICE A END_A - STORY MID7,20.90,1.1,18.581,5.382E-002,16.953,10.764,0.000,0.000,0.000,0.000,27.717,No
 Zone Internal Gains Nominal, ZONE OFFICE WHOLEBUILDING - LG OFFICE A END_A - STORY MID8,20.90,1.1,18.581,5.382E-002,16.953,10.764,0.000,0.000,0.000,0.000,27.717,No
 Zone Internal Gains Nominal, ZONE OFFICE WHOLEBUILDING - LG OFFICE A END_A - STORY MID9,20.90,1.1,18.581,5.382E-002,16.953,10.764,0.000,0.000,0.000,0.000,27.717,No
 Zone Internal Gains Nominal, ZONE OFFICE WHOLEBUILDING - LG OFFICE A END_A - STORY TOP,20.90,1.1,18.581,5.382E-002,16.953,10.764,0.000,0.000,0.000,0.000,27.717,No
 Zone Internal Gains Nominal, ZONE OFFICE WHOLEBUILDING - LG OFFICE A END_B - STORY GROUND,20.90,1.1,18.581,5.382E-002,16.953,10.764,0.000,0.000,0.000,0.000,27.717,No
 Zone Internal Gains Nominal, ZONE OFFICE WHOLEBUILDING - LG OFFICE A END_B - STORY MID,20.90,1.1,18.581,5.382E-002,16.953,10.764,0.000,0.000,0.000,0.000,27.717,No
 Zone Internal Gains Nominal, ZONE OFFICE WHOLEBUILDING - LG OFFICE A END_B - STORY MID10,20.90,1.1,18.581,5.382E-002,16.953,10.764,0.000,0.000,0.000,0.000,27.717,No
 Zone Internal Gains Nominal, ZONE OFFICE WHOLEBUILDING - LG OFFICE A END_B - STORY MID11,20.90,1.1,18.581,5.382E-002,16.953,10.764,0.000,0.000,0.000,0.000,27.717,No
 Zone Internal Gains Nominal, ZONE OFFICE WHOLEBUILDING - LG OFFICE A END_B - STORY MID12,20.90,1.1,18.581,5.382E-002,16.953,10.764,0.000,0.000,0.000,0.000,27.717,No
 Zone Internal Gains Nominal, ZONE OFFICE WHOLEBUILDING - LG OFFICE A END_B - STORY MID13,20.90,1.1,18.581,5.382E-002,16.953,10.764,0.000,0.000,0.000,0.000,27.717,No
 Zone Internal Gains Nominal, ZONE OFFICE WHOLEBUILDING - LG OFFICE A END_B - STORY MID14,20.90,1.1,18.581,5.382E-002,16.953,10.764,0.000,0.000,0.000,0.000,27.717,No
 Zone Internal Gains Nominal, ZONE OFFICE WHOLEBUILDING - LG OFFICE A END_B - STORY MID15,20.90,1.1,18.581,5.382E-002,16.953,10.764,0.000,0.000,0.000,0.000,27.717,No
 Zone Internal Gains Nominal, ZONE OFFICE WHOLEBUILDING - LG OFFICE A END_B - STORY MID16,20.90,1.1,18.581,5.382E-002,16.953,10.764,0.000,0.000,0.000,0.000,27.717,No
 Zone Internal Gains Nominal, ZONE OFFICE WHOLEBUILDING - LG OFFICE A END_B - STORY MID17,20.90,1.1,18.581,5.382E-002,16.953,10.764,0.000,0.000,0.000,0.000,27.717,No
 Zone Internal Gains Nominal, ZONE OFFICE WHOLEBUILDING - LG OFFICE A END_B - STORY MID18,20.90,1.1,18.581,5.382E-002,16.953,10.764,0.000,0.000,0.000,0.000,27.717,No
 Zone Internal Gains Nominal, ZONE OFFICE WHOLEBUILDING - LG OFFICE A END_B - STORY MID2,20.90,1.1,18.581,5.382E-002,16.953,10.764,0.000,0.000,0.000,0.000,27.717,No
 Zone Internal Gains Nominal, ZONE OFFICE WHOLEBUILDING - LG OFFICE A END_B - STORY MID3,20.90,1.1,18.581,5.382E-002,16.953,10.764,0.000,0.000,0.000,0.000,27.717,No
 Zone Internal Gains Nominal, ZONE OFFICE WHOLEBUILDING - LG OFFICE A END_B - STORY MID4,20.90,1.1,18.581,5.382E-002,16.953,10.764,0.000,0.000,0.000,0.000,27.717,No
 Zone Internal Gains Nominal, ZONE OFFICE WHOLEBUILDING - LG OFFICE A END_B - STORY MID5,20.90,1.1,18.581,5.382E-002,16.953,10.764,0.000,0.000,0.000,0.000,27.717,No
 Zone Internal Gains Nominal, ZONE OFFICE WHOLEBUILDING - LG OFFICE A END_B - STORY MID6,20.90,1.1,18.581,5.382E-002,16.953,10.764,0.000,0.000,0.000,0.000,27.717,No
 Zone Internal Gains Nominal, ZONE OFFICE WHOLEBUILDING - LG OFFICE A END_B - STORY MID7,20.90,1.1,18.581,5.382E-002,16.953,10.764,0.000,0.000,0.000,0.000,27.717,No
 Zone Internal Gains Nominal, ZONE OFFICE WHOLEBUILDING - LG OFFICE A END_B - STORY MID8,20.90,1.1,18.581,5.382E-002,16.953,10.764,0.000,0.000,0.000,0.000,27.717,No
 Zone Internal Gains Nominal, ZONE OFFICE WHOLEBUILDING - LG OFFICE A END_B - STORY MID9,20.90,1.1,18.581,5.382E-002,16.953,10.764,0.000,0.000,0.000,0.000,27.717,No
 Zone Internal Gains Nominal, ZONE OFFICE WHOLEBUILDING - LG OFFICE A END_B - STORY TOP,20.90,1.1,18.581,5.382E-002,16.953,10.764,0.000,0.000,0.000,0.000,27.717,No
 Zone Internal Gains Nominal, ZONE OFFICE WHOLEBUILDING - LG OFFICE B  - STORY GROUND,16.44,0.9,18.581,5.382E-002,16.953,10.764,0.000,0.000,0.000,0.000,27.717,No
 Zone Internal Gains Nominal, ZONE OFFICE WHOLEBUILDING - LG OFFICE B  - STORY MID,16.44,0.9,18.581,5.382E-002,16.953,10.764,0.000,0.000,0.000,0.000,27.717,No
 Zone Internal Gains Nominal, ZONE OFFICE WHOLEBUILDING - LG OFFICE B  - STORY MID10,16.44,0.9,18.581,5.382E-002,16.953,10.764,0.000,0.000,0.000,0.000,27.717,No
 Zone Internal Gains Nominal, ZONE OFFICE WHOLEBUILDING - LG OFFICE B  - STORY MID11,16.44,0.9,18.581,5.382E-002,16.953,10.764,0.000,0.000,0.000,0.000,27.717,No
 Zone Internal Gains Nominal, ZONE OFFICE WHOLEBUILDING - LG OFFICE B  - STORY MID12,16.44,0.9,18.581,5.382E-002,16.953,10.764,0.000,0.000,0.000,0.000,27.717,No
 Zone Internal Gains Nominal, ZONE OFFICE WHOLEBUILDING - LG OFFICE B  - STORY MID13,16.44,0.9,18.581,5.382E-002,16.953,10.764,0.000,0.000,0.000,0.000,27.717,No
 Zone Internal Gains Nominal, ZONE OFFICE WHOLEBUILDING - LG OFFICE B  - STORY MID14,16.44,0.9,18.581,5.382E-002,16.953,10.764,0.000,0.000,0.000,0.000,27.717,No
 Zone Internal Gains Nominal, ZONE OFFICE WHOLEBUILDING - LG OFFICE B  - STORY MID15,16.44,0.9,18.581,5.382E-002,16.953,10.764,0.000,0.000,0.000,0.000,27.717,No
 Zone Internal Gains Nominal, ZONE OFFICE WHOLEBUILDING - LG OFFICE B  - STORY MID16,16.44,0.9,18.581,5.382E-002,16.953,10.764,0.000,0.000,0.000,0.000,27.717,No
 Zone Internal Gains Nominal, ZONE OFFICE WHOLEBUILDING - LG OFFICE B  - STORY MID17,16.44,0.9,18.581,5.382E-002,16.953,10.764,0.000,0.000,0.000,0.000,27.717,No
 Zone Internal Gains Nominal, ZONE OFFICE WHOLEBUILDING - LG OFFICE B  - STORY MID18,16.44,0.9,18.581,5.382E-002,16.953,10.764,0.000,0.000,0.000,0.000,27.717,No
 Zone Internal Gains Nominal, ZONE OFFICE WHOLEBUILDING - LG OFFICE B  - STORY MID2,16.44,0.9,18.581,5.382E-002,16.953,10.764,0.000,0.000,0.000,0.000,27.717,No
 Zone Internal Gains Nominal, ZONE OFFICE WHOLEBUILDING - LG OFFICE B  - STORY MID3,16.44,0.9,18.581,5.382E-002,16.953,10.764,0.000,0.000,0.000,0.000,27.717,No
 Zone Internal Gains Nominal, ZONE OFFICE WHOLEBUILDING - LG OFFICE B  - STORY MID4,16.44,0.9,18.581,5.382E-002,16.953,10.764,0.000,0.000,0.000,0.000,27.717,No
 Zone Internal Gains Nominal, ZONE OFFICE WHOLEBUILDING - LG OFFICE B  - STORY MID5,16.44,0.9,18.581,5.382E-002,16.953,10.764,0.000,0.000,0.000,0.000,27.717,No
 Zone Internal Gains Nominal, ZONE OFFICE WHOLEBUILDING - LG OFFICE B  - STORY MID6,16.44,0.9,18.581,5.382E-002,16.953,10.764,0.000,0.000,0.000,0.000,27.717,No
 Zone Internal Gains Nominal, ZONE OFFICE WHOLEBUILDING - LG OFFICE B  - STORY MID7,16.44,0.9,18.581,5.382E-002,16.953,10.764,0.000,0.000,0.000,0.000,27.717,No
 Zone Internal Gains Nominal, ZONE OFFICE WHOLEBUILDING - LG OFFICE B  - STORY MID8,16.44,0.9,18.581,5.382E-002,16.953,10.764,0.000,0.000,0.000,0.000,27.717,No
 Zone Internal Gains Nominal, ZONE OFFICE WHOLEBUILDING - LG OFFICE B  - STORY MID9,16.44,0.9,18.581,5.382E-002,16.953,10.764,0.000,0.000,0.000,0.000,27.717,No
 Zone Internal Gains Nominal, ZONE OFFICE WHOLEBUILDING - LG OFFICE B  - STORY TOP,16.44,0.9,18.581,5.382E-002,16.953,10.764,0.000,0.000,0.000,0.000,27.717,No
 Zone Internal Gains Nominal, ZONE OFFICE WHOLEBUILDING - LG OFFICE B END_A - STORY GROUND,18.54,1.0,18.581,5.382E-002,16.953,10.764,0.000,0.000,0.000,0.000,27.717,No
 Zone Internal Gains Nominal, ZONE OFFICE WHOLEBUILDING - LG OFFICE B END_A - STORY MID,18.54,1.0,18.581,5.382E-002,16.953,10.764,0.000,0.000,0.000,0.000,27.717,No
 Zone Internal Gains Nominal, ZONE OFFICE WHOLEBUILDING - LG OFFICE B END_A - STORY MID10,18.54,1.0,18.581,5.382E-002,16.953,10.764,0.000,0.000,0.000,0.000,27.717,No
 Zone Internal Gains Nominal, ZONE OFFICE WHOLEBUILDING - LG OFFICE B END_A - STORY MID11,18.54,1.0,18.581,5.382E-002,16.953,10.764,0.000,0.000,0.000,0.000,27.717,No
 Zone Internal Gains Nominal, ZONE OFFICE WHOLEBUILDING - LG OFFICE B END_A - STORY MID12,18.54,1.0,18.581,5.382E-002,16.953,10.764,0.000,0.000,0.000,0.000,27.717,No
 Zone Internal Gains Nominal, ZONE OFFICE WHOLEBUILDING - LG OFFICE B END_A - STORY MID13,18.54,1.0,18.581,5.382E-002,16.953,10.764,0.000,0.000,0.000,0.000,27.717,No
 Zone Internal Gains Nominal, ZONE OFFICE WHOLEBUILDING - LG OFFICE B END_A - STORY MID14,18.54,1.0,18.581,5.382E-002,16.953,10.764,0.000,0.000,0.000,0.000,27.717,No
 Zone Internal Gains Nominal, ZONE OFFICE WHOLEBUILDING - LG OFFICE B END_A - STORY MID15,18.54,1.0,18.581,5.382E-002,16.953,10.764,0.000,0.000,0.000,0.000,27.717,No
 Zone Internal Gains Nominal, ZONE OFFICE WHOLEBUILDING - LG OFFICE B END_A - STORY MID16,18.54,1.0,18.581,5.382E-002,16.953,10.764,0.000,0.000,0.000,0.000,27.717,No
 Zone Internal Gains Nominal, ZONE OFFICE WHOLEBUILDING - LG OFFICE B END_A - STORY MID17,18.54,1.0,18.581,5.382E-002,16.953,10.764,0.000,0.000,0.000,0.000,27.717,No
 Zone Internal Gains Nominal, ZONE OFFICE WHOLEBUILDING - LG OFFICE B END_A - STORY MID18,18.54,1.0,18.581,5.382E-002,16.953,10.764,0.000,0.000,0.000,0.000,27.717,No
 Zone Internal Gains Nominal, ZONE OFFICE WHOLEBUILDING - LG OFFICE B END_A - STORY MID2,18.54,1.0,18.581,5.382E-002,16.953,10.764,0.000,0.000,0.000,0.000,27.717,No
 Zone Internal Gains Nominal, ZONE OFFICE WHOLEBUILDING - LG OFFICE B END_A - STORY MID3,18.54,1.0,18.581,5.382E-002,16.953,10.764,0.000,0.000,0.000,0.000,27.717,No
 Zone Internal Gains Nominal, ZONE OFFICE WHOLEBUILDING - LG OFFICE B END_A - STORY MID4,18.54,1.0,18.581,5.382E-002,16.953,10.764,0.000,0.000,0.000,0.000,27.717,No
 Zone Internal Gains Nominal, ZONE OFFICE WHOLEBUILDING - LG OFFICE B END_A - STORY MID5,18.54,1.0,18.581,5.382E-002,16.953,10.764,0.000,0.000,0.000,0.000,27.717,No
 Zone Internal Gains Nominal, ZONE OFFICE WHOLEBUILDING - LG OFFICE B END_A - STORY MID6,18.54,1.0,18.581,5.382E-002,16.953,10.764,0.000,0.000,0.000,0.000,27.717,No
 Zone Internal Gains Nominal, ZONE OFFICE WHOLEBUILDING - LG OFFICE B END_A - STORY MID7,18.54,1.0,18.581,5.382E-002,16.953,10.764,0.000,0.000,0.000,0.000,27.717,No
 Zone Internal Gains Nominal, ZONE OFFICE WHOLEBUILDING - LG OFFICE B END_A - STORY MID8,18.54,1.0,18.581,5.382E-002,16.953,10.764,0.000,0.000,0.000,0.000,27.717,No
 Zone Internal Gains Nominal, ZONE OFFICE WHOLEBUILDING - LG OFFICE B END_A - STORY MID9,18.54,1.0,18.581,5.382E-002,16.953,10.764,0.000,0.000,0.000,0.000,27.717,No
 Zone Internal Gains Nominal, ZONE OFFICE WHOLEBUILDING - LG OFFICE B END_A - STORY TOP,18.54,1.0,18.581,5.382E-002,16.953,10.764,0.000,0.000,0.000,0.000,27.717,No
 Zone Internal Gains Nominal, ZONE OFFICE WHOLEBUILDING - LG OFFICE B END_B - STORY GROUND,18.54,1.0,18.581,5.382E-002,16.953,10.764,0.000,0.000,0.000,0.000,27.717,No
 Zone Internal Gains Nominal, ZONE OFFICE WHOLEBUILDING - LG OFFICE B END_B - STORY MID,18.54,1.0,18.581,5.382E-002,16.953,10.764,0.000,0.000,0.000,0.000,27.717,No
 Zone Internal Gains Nominal, ZONE OFFICE WHOLEBUILDING - LG OFFICE B END_B - STORY MID10,18.54,1.0,18.581,5.382E-002,16.953,10.764,0.000,0.000,0.000,0.000,27.717,No
 Zone Internal Gains Nominal, ZONE OFFICE WHOLEBUILDING - LG OFFICE B END_B - STORY MID11,18.54,1.0,18.581,5.382E-002,16.953,10.764,0.000,0.000,0.000,0.000,27.717,No
 Zone Internal Gains Nominal, ZONE OFFICE WHOLEBUILDING - LG OFFICE B END_B - STORY MID12,18.54,1.0,18.581,5.382E-002,16.953,10.764,0.000,0.000,0.000,0.000,27.717,No
 Zone Internal Gains Nominal, ZONE OFFICE WHOLEBUILDING - LG OFFICE B END_B - STORY MID13,18.54,1.0,18.581,5.382E-002,16.953,10.764,0.000,0.000,0.000,0.000,27.717,No
 Zone Internal Gains Nominal, ZONE OFFICE WHOLEBUILDING - LG OFFICE B END_B - STORY MID14,18.54,1.0,18.581,5.382E-002,16.953,10.764,0.000,0.000,0.000,0.000,27.717,No
 Zone Internal Gains Nominal, ZONE OFFICE WHOLEBUILDING - LG OFFICE B END_B - STORY MID15,18.54,1.0,18.581,5.382E-002,16.953,10.764,0.000,0.000,0.000,0.000,27.717,No
 Zone Internal Gains Nominal, ZONE OFFICE WHOLEBUILDING - LG OFFICE B END_B - STORY MID16,18.54,1.0,18.581,5.382E-002,16.953,10.764,0.000,0.000,0.000,0.000,27.717,No
 Zone Internal Gains Nominal, ZONE OFFICE WHOLEBUILDING - LG OFFICE B END_B - STORY MID17,18.54,1.0,18.581,5.382E-002,16.953,10.764,0.000,0.000,0.000,0.000,27.717,No
 Zone Internal Gains Nominal, ZONE OFFICE WHOLEBUILDING - LG OFFICE B END_B - STORY MID18,18.54,1.0,18.581,5.382E-002,16.953,10.764,0.000,0.000,0.000,0.000,27.717,No
 Zone Internal Gains Nominal, ZONE OFFICE WHOLEBUILDING - LG OFFICE B END_B - STORY MID2,18.54,1.0,18.581,5.382E-002,16.953,10.764,0.000,0.000,0.000,0.000,27.717,No
 Zone Internal Gains Nominal, ZONE OFFICE WHOLEBUILDING - LG OFFICE B END_B - STORY MID3,18.54,1.0,18.581,5.382E-002,16.953,10.764,0.000,0.000,0.000,0.000,27.717,No
 Zone Internal Gains Nominal, ZONE OFFICE WHOLEBUILDING - LG OFFICE B END_B - STORY MID4,18.54,1.0,18.581,5.382E-002,16.953,10.764,0.000,0.000,0.000,0.000,27.717,No
 Zone Internal Gains Nominal, ZONE OFFICE WHOLEBUILDING - LG OFFICE B END_B - STORY MID5,18.54,1.0,18.581,5.382E-002,16.953,10.764,0.000,0.000,0.000,0.000,27.717,No
 Zone Internal Gains Nominal, ZONE OFFICE WHOLEBUILDING - LG OFFICE B END_B - STORY MID6,18.54,1.0,18.581,5.382E-002,16.953,10.764,0.000,0.000,0.000,0.000,27.717,No
 Zone Internal Gains Nominal, ZONE OFFICE WHOLEBUILDING - LG OFFICE B END_B - STORY MID7,18.54,1.0,18.581,5.382E-002,16.953,10.764,0.000,0.000,0.000,0.000,27.717,No
 Zone Internal Gains Nominal, ZONE OFFICE WHOLEBUILDING - LG OFFICE B END_B - STORY MID8,18.54,1.0,18.581,5.382E-002,16.953,10.764,0.000,0.000,0.000,0.000,27.717,No
 Zone Internal Gains Nominal, ZONE OFFICE WHOLEBUILDING - LG OFFICE B END_B - STORY MID9,18.54,1.0,18.581,5.382E-002,16.953,10.764,0.000,0.000,0.000,0.000,27.717,No
 Zone Internal Gains Nominal, ZONE OFFICE WHOLEBUILDING - LG OFFICE B END_B - STORY TOP,18.54,1.0,18.581,5.382E-002,16.953,10.764,0.000,0.000,0.000,0.000,27.717,No
 Zone Internal Gains Nominal, ZONE OFFICE WHOLEBUILDING - LG OFFICE C  - STORY GROUND,18.54,1.0,18.581,5.382E-002,16.953,10.764,0.000,0.000,0.000,0.000,27.717,No
 Zone Internal Gains Nominal, ZONE OFFICE WHOLEBUILDING - LG OFFICE C  - STORY MID,18.54,1.0,18.581,5.382E-002,16.953,10.764,0.000,0.000,0.000,0.000,27.717,No
 Zone Internal Gains Nominal, ZONE OFFICE WHOLEBUILDING - LG OFFICE C  - STORY MID10,18.54,1.0,18.581,5.382E-002,16.953,10.764,0.000,0.000,0.000,0.000,27.717,No
 Zone Internal Gains Nominal, ZONE OFFICE WHOLEBUILDING - LG OFFICE C  - STORY MID11,18.54,1.0,18.581,5.382E-002,16.953,10.764,0.000,0.000,0.000,0.000,27.717,No
 Zone Internal Gains Nominal, ZONE OFFICE WHOLEBUILDING - LG OFFICE C  - STORY MID12,18.54,1.0,18.581,5.382E-002,16.953,10.764,0.000,0.000,0.000,0.000,27.717,No
 Zone Internal Gains Nominal, ZONE OFFICE WHOLEBUILDING - LG OFFICE C  - STORY MID13,18.54,1.0,18.581,5.382E-002,16.953,10.764,0.000,0.000,0.000,0.000,27.717,No
 Zone Internal Gains Nominal, ZONE OFFICE WHOLEBUILDING - LG OFFICE C  - STORY MID14,18.54,1.0,18.581,5.382E-002,16.953,10.764,0.000,0.000,0.000,0.000,27.717,No
 Zone Internal Gains Nominal, ZONE OFFICE WHOLEBUILDING - LG OFFICE C  - STORY MID15,18.54,1.0,18.581,5.382E-002,16.953,10.764,0.000,0.000,0.000,0.000,27.717,No
 Zone Internal Gains Nominal, ZONE OFFICE WHOLEBUILDING - LG OFFICE C  - STORY MID16,18.54,1.0,18.581,5.382E-002,16.953,10.764,0.000,0.000,0.000,0.000,27.717,No
 Zone Internal Gains Nominal, ZONE OFFICE WHOLEBUILDING - LG OFFICE C  - STORY MID17,18.54,1.0,18.581,5.382E-002,16.953,10.764,0.000,0.000,0.000,0.000,27.717,No
 Zone Internal Gains Nominal, ZONE OFFICE WHOLEBUILDING - LG OFFICE C  - STORY MID18,18.54,1.0,18.581,5.382E-002,16.953,10.764,0.000,0.000,0.000,0.000,27.717,No
 Zone Internal Gains Nominal, ZONE OFFICE WHOLEBUILDING - LG OFFICE C  - STORY MID2,18.54,1.0,18.581,5.382E-002,16.953,10.764,0.000,0.000,0.000,0.000,27.717,No
 Zone Internal Gains Nominal, ZONE OFFICE WHOLEBUILDING - LG OFFICE C  - STORY MID3,18.54,1.0,18.581,5.382E-002,16.953,10.764,0.000,0.000,0.000,0.000,27.717,No
 Zone Internal Gains Nominal, ZONE OFFICE WHOLEBUILDING - LG OFFICE C  - STORY MID4,18.54,1.0,18.581,5.382E-002,16.953,10.764,0.000,0.000,0.000,0.000,27.717,No
 Zone Internal Gains Nominal, ZONE OFFICE WHOLEBUILDING - LG OFFICE C  - STORY MID5,18.54,1.0,18.581,5.382E-002,16.953,10.764,0.000,0.000,0.000,0.000,27.717,No
 Zone Internal Gains Nominal, ZONE OFFICE WHOLEBUILDING - LG OFFICE C  - STORY MID6,18.54,1.0,18.581,5.382E-002,16.953,10.764,0.000,0.000,0.000,0.000,27.717,No
 Zone Internal Gains Nominal, ZONE OFFICE WHOLEBUILDING - LG OFFICE C  - STORY MID7,18.54,1.0,18.581,5.382E-002,16.953,10.764,0.000,0.000,0.000,0.000,27.717,No
 Zone Internal Gains Nominal, ZONE OFFICE WHOLEBUILDING - LG OFFICE C  - STORY MID8,18.54,1.0,18.581,5.382E-002,16.953,10.764,0.000,0.000,0.000,0.000,27.717,No
 Zone Internal Gains Nominal, ZONE OFFICE WHOLEBUILDING - LG OFFICE C  - STORY MID9,18.54,1.0,18.581,5.382E-002,16.953,10.764,0.000,0.000,0.000,0.000,27.717,No
 Zone Internal Gains Nominal, ZONE OFFICE WHOLEBUILDING - LG OFFICE C  - STORY TOP,18.54,1.0,18.581,5.382E-002,16.953,10.764,0.000,0.000,0.000,0.000,27.717,No
 Zone Internal Gains Nominal, ZONE OFFICE WHOLEBUILDING - LG OFFICE C END_A - STORY GROUND,20.90,1.1,18.581,5.382E-002,16.953,10.764,0.000,0.000,0.000,0.000,27.717,No
 Zone Internal Gains Nominal, ZONE OFFICE WHOLEBUILDING - LG OFFICE C END_A - STORY MID,20.90,1.1,18.581,5.382E-002,16.953,10.764,0.000,0.000,0.000,0.000,27.717,No
 Zone Internal Gains Nominal, ZONE OFFICE WHOLEBUILDING - LG OFFICE C END_A - STORY MID10,20.90,1.1,18.581,5.382E-002,16.953,10.764,0.000,0.000,0.000,0.000,27.717,No
 Zone Internal Gains Nominal, ZONE OFFICE WHOLEBUILDING - LG OFFICE C END_A - STORY MID11,20.90,1.1,18.581,5.382E-002,16.953,10.764,0.000,0.000,0.000,0.000,27.717,No
 Zone Internal Gains Nominal, ZONE OFFICE WHOLEBUILDING - LG OFFICE C END_A - STORY MID12,20.90,1.1,18.581,5.382E-002,16.953,10.764,0.000,0.000,0.000,0.000,27.717,No
 Zone Internal Gains Nominal, ZONE OFFICE WHOLEBUILDING - LG OFFICE C END_A - STORY MID13,20.90,1.1,18.581,5.382E-002,16.953,10.764,0.000,0.000,0.000,0.000,27.717,No
 Zone Internal Gains Nominal, ZONE OFFICE WHOLEBUILDING - LG OFFICE C END_A - STORY MID14,20.90,1.1,18.581,5.382E-002,16.953,10.764,0.000,0.000,0.000,0.000,27.717,No
 Zone Internal Gains Nominal, ZONE OFFICE WHOLEBUILDING - LG OFFICE C END_A - STORY MID15,20.90,1.1,18.581,5.382E-002,16.953,10.764,0.000,0.000,0.000,0.000,27.717,No
 Zone Internal Gains Nominal, ZONE OFFICE WHOLEBUILDING - LG OFFICE C END_A - STORY MID16,20.90,1.1,18.581,5.382E-002,16.953,10.764,0.000,0.000,0.000,0.000,27.717,No
 Zone Internal Gains Nominal, ZONE OFFICE WHOLEBUILDING - LG OFFICE C END_A - STORY MID17,20.90,1.1,18.581,5.382E-002,16.953,10.764,0.000,0.000,0.000,0.000,27.717,No
 Zone Internal Gains Nominal, ZONE OFFICE WHOLEBUILDING - LG OFFICE C END_A - STORY MID18,20.90,1.1,18.581,5.382E-002,16.953,10.764,0.000,0.000,0.000,0.000,27.717,No
 Zone Internal Gains Nominal, ZONE OFFICE WHOLEBUILDING - LG OFFICE C END_A - STORY MID2,20.90,1.1,18.581,5.382E-002,16.953,10.764,0.000,0.000,0.000,0.000,27.717,No
 Zone Internal Gains Nominal, ZONE OFFICE WHOLEBUILDING - LG OFFICE C END_A - STORY MID3,20.90,1.1,18.581,5.382E-002,16.953,10.764,0.000,0.000,0.000,0.000,27.717,No
 Zone Internal Gains Nominal, ZONE OFFICE WHOLEBUILDING - LG OFFICE C END_A - STORY MID4,20.90,1.1,18.581,5.382E-002,16.953,10.764,0.000,0.000,0.000,0.000,27.717,No
 Zone Internal Gains Nominal, ZONE OFFICE WHOLEBUILDING - LG OFFICE C END_A - STORY MID5,20.90,1.1,18.581,5.382E-002,16.953,10.764,0.000,0.000,0.000,0.000,27.717,No
 Zone Internal Gains Nominal, ZONE OFFICE WHOLEBUILDING - LG OFFICE C END_A - STORY MID6,20.90,1.1,18.581,5.382E-002,16.953,10.764,0.000,0.000,0.000,0.000,27.717,No
 Zone Internal Gains Nominal, ZONE OFFICE WHOLEBUILDING - LG OFFICE C END_A - STORY MID7,20.90,1.1,18.581,5.382E-002,16.953,10.764,0.000,0.000,0.000,0.000,27.717,No
 Zone Internal Gains Nominal, ZONE OFFICE WHOLEBUILDING - LG OFFICE C END_A - STORY MID8,20.90,1.1,18.581,5.382E-002,16.953,10.764,0.000,0.000,0.000,0.000,27.717,No
 Zone Internal Gains Nominal, ZONE OFFICE WHOLEBUILDING - LG OFFICE C END_A - STORY MID9,20.90,1.1,18.581,5.382E-002,16.953,10.764,0.000,0.000,0.000,0.000,27.717,No
 Zone Internal Gains Nominal, ZONE OFFICE WHOLEBUILDING - LG OFFICE C END_A - STORY TOP,20.90,1.1,18.581,5.382E-002,16.953,10.764,0.000,0.000,0.000,0.000,27.717,No
 Zone Internal Gains Nominal, ZONE OFFICE WHOLEBUILDING - LG OFFICE C END_B - STORY GROUND,20.90,1.1,18.581,5.382E-002,16.953,1784.369,0.000,0.000,0.000,0.000,1801.322,No
 Zone Internal Gains Nominal, ZONE OFFICE WHOLEBUILDING - LG OFFICE C END_B - STORY MID,20.90,1.1,18.581,5.382E-002,16.953,10.764,0.000,0.000,0.000,0.000,27.717,No
 Zone Internal Gains Nominal, ZONE OFFICE WHOLEBUILDING - LG OFFICE C END_B - STORY MID10,20.90,1.1,18.581,5.382E-002,16.953,10.764,0.000,0.000,0.000,0.000,27.717,No
 Zone Internal Gains Nominal, ZONE OFFICE WHOLEBUILDING - LG OFFICE C END_B - STORY MID11,20.90,1.1,18.581,5.382E-002,16.953,10.764,0.000,0.000,0.000,0.000,27.717,No
 Zone Internal Gains Nominal, ZONE OFFICE WHOLEBUILDING - LG OFFICE C END_B - STORY MID12,20.90,1.1,18.581,5.382E-002,16.953,10.764,0.000,0.000,0.000,0.000,27.717,No
 Zone Internal Gains Nominal, ZONE OFFICE WHOLEBUILDING - LG OFFICE C END_B - STORY MID13,20.90,1.1,18.581,5.382E-002,16.953,10.764,0.000,0.000,0.000,0.000,27.717,No
 Zone Internal Gains Nominal, ZONE OFFICE WHOLEBUILDING - LG OFFICE C END_B - STORY MID14,20.90,1.1,18.581,5.382E-002,16.953,10.764,0.000,0.000,0.000,0.000,27.717,No
 Zone Internal Gains Nominal, ZONE OFFICE WHOLEBUILDING - LG OFFICE C END_B - STORY MID15,20.90,1.1,18.581,5.382E-002,16.953,10.764,0.000,0.000,0.000,0.000,27.717,No
 Zone Internal Gains Nominal, ZONE OFFICE WHOLEBUILDING - LG OFFICE C END_B - STORY MID16,20.90,1.1,18.581,5.382E-002,16.953,10.764,0.000,0.000,0.000,0.000,27.717,No
 Zone Internal Gains Nominal, ZONE OFFICE WHOLEBUILDING - LG OFFICE C END_B - STORY MID17,20.90,1.1,18.581,5.382E-002,16.953,10.764,0.000,0.000,0.000,0.000,27.717,No
 Zone Internal Gains Nominal, ZONE OFFICE WHOLEBUILDING - LG OFFICE C END_B - STORY MID18,20.90,1.1,18.581,5.382E-002,16.953,10.764,0.000,0.000,0.000,0.000,27.717,No
 Zone Internal Gains Nominal, ZONE OFFICE WHOLEBUILDING - LG OFFICE C END_B - STORY MID2,20.90,1.1,18.581,5.382E-002,16.953,10.764,0.000,0.000,0.000,0.000,27.717,No
 Zone Internal Gains Nominal, ZONE OFFICE WHOLEBUILDING - LG OFFICE C END_B - STORY MID3,20.90,1.1,18.581,5.382E-002,16.953,10.764,0.000,0.000,0.000,0.000,27.717,No
 Zone Internal Gains Nominal, ZONE OFFICE WHOLEBUILDING - LG OFFICE C END_B - STORY MID4,20.90,1.1,18.581,5.382E-002,16.953,10.764,0.000,0.000,0.000,0.000,27.717,No
 Zone Internal Gains Nominal, ZONE OFFICE WHOLEBUILDING - LG OFFICE C END_B - STORY MID5,20.90,1.1,18.581,5.382E-002,16.953,10.764,0.000,0.000,0.000,0.000,27.717,No
 Zone Internal Gains Nominal, ZONE OFFICE WHOLEBUILDING - LG OFFICE C END_B - STORY MID6,20.90,1.1,18.581,5.382E-002,16.953,10.764,0.000,0.000,0.000,0.000,27.717,No
 Zone Internal Gains Nominal, ZONE OFFICE WHOLEBUILDING - LG OFFICE C END_B - STORY MID7,20.90,1.1,18.581,5.382E-002,16.953,10.764,0.000,0.000,0.000,0.000,27.717,No
 Zone Internal Gains Nominal, ZONE OFFICE WHOLEBUILDING - LG OFFICE C END_B - STORY MID8,20.90,1.1,18.581,5.382E-002,16.953,10.764,0.000,0.000,0.000,0.000,27.717,No
 Zone Internal Gains Nominal, ZONE OFFICE WHOLEBUILDING - LG OFFICE C END_B - STORY MID9,20.90,1.1,18.581,5.382E-002,16.953,10.764,0.000,0.000,0.000,0.000,27.717,No
 Zone Internal Gains Nominal, ZONE OFFICE WHOLEBUILDING - LG OFFICE C END_B - STORY TOP,20.90,1.1,18.581,5.382E-002,16.953,10.764,0.000,0.000,0.000,0.000,27.717,No
! <People Internal Gains Nominal>,Name,Schedule Name,Zone Name,Zone Floor Area {m2},# Zone Occupants,Number of People {},People/Floor Area {person/m2},Floor Area per person {m2/person},Fraction Radiant,Fraction Convected,Sensible Fraction Calculation,Activity level,ASHRAE 55 Warnings,Carbon Dioxide Generation Rate,Nominal Minimum Number of People,Nominal Maximum Number of People
 People Internal Gains Nominal, OFFICE WHOLEBUILDING - LG OFFICE A  - STORY GROUND OFFICE WHOLEBUILDING - LG OFFICE PEOPLE,LARGE OFFICE BLDG OCC,ZONE OFFICE WHOLEBUILDING - LG OFFICE A  - STORY GROUND,18.54,1.0,1.0,5.382E-002,18.581,0.300,0.700,AutoCalculate,LARGE OFFICE ACTIVITY,No,3.8200E-008,0,1
 People Internal Gains Nominal, OFFICE WHOLEBUILDING - LG OFFICE A END_B - STORY GROUND OFFICE WHOLEBUILDING - LG OFFICE PEOPLE,LARGE OFFICE BLDG OCC,ZONE OFFICE WHOLEBUILDING - LG OFFICE A END_B - STORY GROUND,20.90,1.1,1.1,5.382E-002,18.581,0.300,0.700,AutoCalculate,LARGE OFFICE ACTIVITY,No,3.8200E-008,0,1
 People Internal Gains Nominal, OFFICE WHOLEBUILDING - LG OFFICE B END_B - STORY GROUND OFFICE WHOLEBUILDING - LG OFFICE PEOPLE,LARGE OFFICE BLDG OCC,ZONE OFFICE WHOLEBUILDING - LG OFFICE B END_B - STORY GROUND,18.54,1.0,1.0,5.382E-002,18.581,0.300,0.700,AutoCalculate,LARGE OFFICE ACTIVITY,No,3.8200E-008,0,1
 People Internal Gains Nominal, OFFICE WHOLEBUILDING - LG OFFICE A END_A - STORY MID OFFICE WHOLEBUILDING - LG OFFICE PEOPLE,LARGE OFFICE BLDG OCC,ZONE OFFICE WHOLEBUILDING - LG OFFICE A END_A - STORY MID,20.90,1.1,1.1,5.382E-002,18.581,0.300,0.700,AutoCalculate,LARGE OFFICE ACTIVITY,No,3.8200E-008,0,1
 People Internal Gains Nominal, OFFICE WHOLEBUILDING - LG OFFICE A  - STORY MID OFFICE WHOLEBUILDING - LG OFFICE PEOPLE,LARGE OFFICE BLDG OCC,ZONE OFFICE WHOLEBUILDING - LG OFFICE A  - STORY MID,18.54,1.0,1.0,5.382E-002,18.581,0.300,0.700,AutoCalculate,LARGE OFFICE ACTIVITY,No,3.8200E-008,0,1
 People Internal Gains Nominal, OFFICE WHOLEBUILDING - LG OFFICE B  - STORY MID OFFICE WHOLEBUILDING - LG OFFICE PEOPLE,LARGE OFFICE BLDG OCC,ZONE OFFICE WHOLEBUILDING - LG OFFICE B  - STORY MID,16.44,0.9,0.9,5.382E-002,18.581,0.300,0.700,AutoCalculate,LARGE OFFICE ACTIVITY,No,3.8200E-008,0,1
 People Internal Gains Nominal, OFFICE WHOLEBUILDING - LG OFFICE C  - STORY MID OFFICE WHOLEBUILDING - LG OFFICE PEOPLE,LARGE OFFICE BLDG OCC,ZONE OFFICE WHOLEBUILDING - LG OFFICE C  - STORY MID,18.54,1.0,1.0,5.382E-002,18.581,0.300,0.700,AutoCalculate,LARGE OFFICE ACTIVITY,No,3.8200E-008,0,1
 People Internal Gains Nominal, OFFICE WHOLEBUILDING - LG OFFICE A END_B - STORY MID OFFICE WHOLEBUILDING - LG OFFICE PEOPLE,LARGE OFFICE BLDG OCC,ZONE OFFICE WHOLEBUILDING - LG OFFICE A END_B - STORY MID,20.90,1.1,1.1,5.382E-002,18.581,0.300,0.700,AutoCalculate,LARGE OFFICE ACTIVITY,No,3.8200E-008,0,1
[...]
 Warmup Convergence Information,ZONE OFFICE WHOLEBUILDING - LG OFFICE C  - STORY MID15,SizingPeriod: JACKSONVILLE INTNL SEPTEMBER .4% CONDNS WB=>MCDB 1,5.6250000000E-002,0.2884198203,Pass,Pass,6.2892415802E-002,0.3683607291,Pass,Pass
 Warmup Convergence Information,ZONE OFFICE WHOLEBUILDING - LG OFFICE C  - STORY MID16,SizingPeriod: JACKSONVILLE INTNL SEPTEMBER .4% CONDNS WB=>MCDB 1,5.6250000000E-002,0.2880959615,Pass,Pass,6.2984489256E-002,0.3670997664,Pass,Pass
 Warmup Convergence Information,ZONE OFFICE WHOLEBUILDING - LG OFFICE C  - STORY MID17,SizingPeriod: JACKSONVILLE INTNL SEPTEMBER .4% CONDNS WB=>MCDB 1,5.6249999999E-002,0.2877484355,Pass,Pass,6.3139536863E-002,0.3671500839,Pass,Pass
 Warmup Convergence Information,ZONE OFFICE WHOLEBUILDING - LG OFFICE C  - STORY MID18,SizingPeriod: JACKSONVILLE INTNL SEPTEMBER .4% CONDNS WB=>MCDB 1,5.6249999999E-002,0.2874283237,Pass,Pass,6.3162427807E-002,0.3660873178,Pass,Pass
 Warmup Convergence Information,ZONE OFFICE WHOLEBUILDING - LG OFFICE C  - STORY MID2,SizingPeriod: JACKSONVILLE INTNL SEPTEMBER .4% CONDNS WB=>MCDB 1,5.6250000000E-002,0.2971105892,Pass,Pass,6.4141868473E-002,0.3872574299,Pass,Pass
 Warmup Convergence Information,ZONE OFFICE WHOLEBUILDING - LG OFFICE C  - STORY MID3,SizingPeriod: JACKSONVILLE INTNL SEPTEMBER .4% CONDNS WB=>MCDB 1,5.6250000000E-002,0.2957045278,Pass,Pass,6.4008881474E-002,0.3849124600,Pass,Pass
 Warmup Convergence Information,ZONE OFFICE WHOLEBUILDING - LG OFFICE C  - STORY MID4,SizingPeriod: JACKSONVILLE INTNL SEPTEMBER .4% CONDNS WB=>MCDB 1,5.6250000000E-002,0.2948620983,Pass,Pass,6.4058037587E-002,0.3836212037,Pass,Pass
 Warmup Convergence Information,ZONE OFFICE WHOLEBUILDING - LG OFFICE C  - STORY MID5,SizingPeriod: JACKSONVILLE INTNL SEPTEMBER .4% CONDNS WB=>MCDB 1,5.6250000000E-002,0.2939292476,Pass,Pass,6.4206786353E-002,0.3825962782,Pass,Pass
 Warmup Convergence Information,ZONE OFFICE WHOLEBUILDING - LG OFFICE C  - STORY MID6,SizingPeriod: JACKSONVILLE INTNL SEPTEMBER .4% CONDNS WB=>MCDB 1,5.6250000000E-002,0.2931336487,Pass,Pass,6.4172020109E-002,0.3802189097,Pass,Pass
 Warmup Convergence Information,ZONE OFFICE WHOLEBUILDING - LG OFFICE C  - STORY MID7,SizingPeriod: JACKSONVILLE INTNL SEPTEMBER .4% CONDNS WB=>MCDB 1,5.6250000000E-002,0.2924464742,Pass,Pass,6.4176274811E-002,0.3786126585,Pass,Pass
 Warmup Convergence Information,ZONE OFFICE WHOLEBUILDING - LG OFFICE C  - STORY MID8,SizingPeriod: JACKSONVILLE INTNL SEPTEMBER .4% CONDNS WB=>MCDB 1,5.6250000000E-002,0.2919654451,Pass,Pass,6.3860564775E-002,0.3736501376,Pass,Pass
 Warmup Convergence Information,ZONE OFFICE WHOLEBUILDING - LG OFFICE C  - STORY MID9,SizingPeriod: JACKSONVILLE INTNL SEPTEMBER .4% CONDNS WB=>MCDB 1,5.6250000000E-002,0.2913914669,Pass,Pass,6.4192866496E-002,0.3747809306,Pass,Pass
 Warmup Convergence Information,ZONE OFFICE WHOLEBUILDING - LG OFFICE C  - STORY TOP,SizingPeriod: JACKSONVILLE INTNL SEPTEMBER .4% CONDNS WB=>MCDB 1,5.6250000002E-002,0.2859966960,Pass,Pass,6.7007811953E-002,0.3380099981,Pass,Pass
 Warmup Convergence Information,ZONE OFFICE WHOLEBUILDING - LG OFFICE C END_A - STORY GROUND,SizingPeriod: JACKSONVILLE INTNL SEPTEMBER .4% CONDNS WB=>MCDB 1,5.6250000000E-002,0.3329021720,Pass,Pass,4.8148332863E-002,0.1997063644,Pass,Pass
 Warmup Convergence Information,ZONE OFFICE WHOLEBUILDING - LG OFFICE C END_A - STORY MID,SizingPeriod: JACKSONVILLE INTNL SEPTEMBER .4% CONDNS WB=>MCDB 1,5.6250000000E-002,0.3294474743,Pass,Pass,5.7250455736E-002,0.2441465754,Pass,Pass
 Warmup Convergence Information,ZONE OFFICE WHOLEBUILDING - LG OFFICE C END_A - STORY MID10,SizingPeriod: JACKSONVILLE INTNL SEPTEMBER .4% CONDNS WB=>MCDB 1,5.6250000000E-002,0.3219620250,Pass,Pass,5.9733812727E-002,0.2302886062,Pass,Pass
 Warmup Convergence Information,ZONE OFFICE WHOLEBUILDING - LG OFFICE C END_A - STORY MID11,SizingPeriod: JACKSONVILLE INTNL SEPTEMBER .4% CONDNS WB=>MCDB 1,5.6250000000E-002,0.3210107442,Pass,Pass,5.9656901496E-002,0.2367603710,Pass,Pass
 Warmup Convergence Information,ZONE OFFICE WHOLEBUILDING - LG OFFICE C END_A - STORY MID12,SizingPeriod: JACKSONVILLE INTNL SEPTEMBER .4% CONDNS WB=>MCDB 1,5.6250000000E-002,0.3204021659,Pass,Pass,6.1319177682E-002,0.2437963846,Pass,Pass
 Warmup Convergence Information,ZONE OFFICE WHOLEBUILDING - LG OFFICE C END_A - STORY MID13,SizingPeriod: JACKSONVILLE INTNL SEPTEMBER .4% CONDNS WB=>MCDB 1,5.6339386349E-002,0.3200671380,Pass,Pass,6.6004625098E-002,0.2717967889,Pass,Pass
 Warmup Convergence Information,ZONE OFFICE WHOLEBUILDING - LG OFFICE C END_A - STORY MID14,SizingPeriod: JACKSONVILLE INTNL SEPTEMBER .4% CONDNS WB=>MCDB 1,5.6339169620E-002,0.3193248781,Pass,Pass,7.2072456289E-002,0.3252433043,Pass,Pass
 Warmup Convergence Information,ZONE OFFICE WHOLEBUILDING - LG OFFICE C END_A - STORY MID15,SizingPeriod: JACKSONVILLE INTNL SEPTEMBER .4% CONDNS WB=>MCDB 1,5.6337217389E-002,0.3185483699,Pass,Pass,7.9479390550E-002,0.3906103359,Pass,Pass
 Warmup Convergence Information,ZONE OFFICE WHOLEBUILDING - LG OFFICE C END_A - STORY MID16,SizingPeriod: JACKSONVILLE INTNL SEPTEMBER .4% CONDNS WB=>MCDB 1,5.6337964611E-002,0.3175266787,Pass,Pass,8.3558836819E-002,0.4472907722,Pass,Pass
 Warmup Convergence Information,ZONE OFFICE WHOLEBUILDING - LG OFFICE C END_A - STORY MID17,SizingPeriod: JACKSONVILLE INTNL SEPTEMBER .4% CONDNS WB=>MCDB 1,5.6338337110E-002,0.3167220980,Pass,Pass,9.3496283979E-002,0.5308030740,Pass,Pass
 Warmup Convergence Information,ZONE OFFICE WHOLEBUILDING - LG OFFICE C END_A - STORY MID18,SizingPeriod: JACKSONVILLE INTNL SEPTEMBER .4% CONDNS WB=>MCDB 1,5.6338824386E-002,0.3158070278,Pass,Pass,0.1002386992,0.5819897969,Pass,Pass
 Warmup Convergence Information,ZONE OFFICE WHOLEBUILDING - LG OFFICE C END_A - STORY MID2,SizingPeriod: JACKSONVILLE INTNL SEPTEMBER .4% CONDNS WB=>MCDB 1,5.6250000000E-002,0.3278282471,Pass,Pass,5.3651107422E-002,0.2237308059,Pass,Pass
 Warmup Convergence Information,ZONE OFFICE WHOLEBUILDING - LG OFFICE C END_A - STORY MID3,SizingPeriod: JACKSONVILLE INTNL SEPTEMBER .4% CONDNS WB=>MCDB 1,5.6250000000E-002,0.3273349914,Pass,Pass,5.5483574929E-002,0.2321424470,Pass,Pass
 Warmup Convergence Information,ZONE OFFICE WHOLEBUILDING - LG OFFICE C END_A - STORY MID4,SizingPeriod: JACKSONVILLE INTNL SEPTEMBER .4% CONDNS WB=>MCDB 1,5.6250000000E-002,0.3266023592,Pass,Pass,5.6568104266E-002,0.2316568272,Pass,Pass
 Warmup Convergence Information,ZONE OFFICE WHOLEBUILDING - LG OFFICE C END_A - STORY MID5,SizingPeriod: JACKSONVILLE INTNL SEPTEMBER .4% CONDNS WB=>MCDB 1,5.6250000000E-002,0.3255281692,Pass,Pass,5.4958689824E-002,0.2292246628,Pass,Pass
 Warmup Convergence Information,ZONE OFFICE WHOLEBUILDING - LG OFFICE C END_A - STORY MID6,SizingPeriod: JACKSONVILLE INTNL SEPTEMBER .4% CONDNS WB=>MCDB 1,5.6250000000E-002,0.3247959383,Pass,Pass,5.5224776728E-002,0.2257494199,Pass,Pass
 Warmup Convergence Information,ZONE OFFICE WHOLEBUILDING - LG OFFICE C END_A - STORY MID7,SizingPeriod: JACKSONVILLE INTNL SEPTEMBER .4% CONDNS WB=>MCDB 1,5.6250000000E-002,0.3240114929,Pass,Pass,5.3830425568E-002,0.2142023760,Pass,Pass
 Warmup Convergence Information,ZONE OFFICE WHOLEBUILDING - LG OFFICE C END_A - STORY MID8,SizingPeriod: JACKSONVILLE INTNL SEPTEMBER .4% CONDNS WB=>MCDB 1,5.6250000000E-002,0.3234148601,Pass,Pass,5.2546813619E-002,0.2038063054,Pass,Pass
 Warmup Convergence Information,ZONE OFFICE WHOLEBUILDING - LG OFFICE C END_A - STORY MID9,SizingPeriod: JACKSONVILLE INTNL SEPTEMBER .4% CONDNS WB=>MCDB 1,5.6250000000E-002,0.3225465787,Pass,Pass,5.9691786324E-002,0.2356765669,Pass,Pass
 Warmup Convergence Information,ZONE OFFICE WHOLEBUILDING - LG OFFICE C END_A - STORY TOP,SizingPeriod: JACKSONVILLE INTNL SEPTEMBER .4% CONDNS WB=>MCDB 1,5.6335817811E-002,0.3096229092,Pass,Pass,9.0625445761E-002,0.4148197606,Pass,Pass
 Warmup Convergence Information,ZONE OFFICE WHOLEBUILDING - LG OFFICE C END_B - STORY GROUND,SizingPeriod: JACKSONVILLE INTNL SEPTEMBER .4% CONDNS WB=>MCDB 1,5.6250000001E-002,0.3176280845,Pass,Pass,6.3124912783E-002,0.3848034315,Pass,Pass
 Warmup Convergence Information,ZONE OFFICE WHOLEBUILDING - LG OFFICE C END_B - STORY MID,SizingPeriod: JACKSONVILLE INTNL SEPTEMBER .4% CONDNS WB=>MCDB 1,5.6250000000E-002,0.3107211885,Pass,Pass,7.6780760472E-002,0.4771462060,Pass,Pass
 Warmup Convergence Information,ZONE OFFICE WHOLEBUILDING - LG OFFICE C END_B - STORY MID10,SizingPeriod: JACKSONVILLE INTNL SEPTEMBER .4% CONDNS WB=>MCDB 1,5.6366556221E-002,0.3022084641,Pass,Pass,6.7617463932E-002,0.3786243570,Pass,Pass
 Warmup Convergence Information,ZONE OFFICE WHOLEBUILDING - LG OFFICE C END_B - STORY MID11,SizingPeriod: JACKSONVILLE INTNL SEPTEMBER .4% CONDNS WB=>MCDB 1,5.6370754918E-002,0.3000930469,Pass,Pass,6.8185548814E-002,0.3768259097,Pass,Pass
 Warmup Convergence Information,ZONE OFFICE WHOLEBUILDING - LG OFFICE C END_B - STORY MID12,SizingPeriod: JACKSONVILLE INTNL SEPTEMBER .4% CONDNS WB=>MCDB 1,5.6459831173E-002,0.2968877447,Pass,Pass,6.8958785841E-002,0.3750195019,Pass,Pass
 Warmup Convergence Information,ZONE OFFICE WHOLEBUILDING - LG OFFICE C END_B - STORY MID13,SizingPeriod: JACKSONVILLE INTNL SEPTEMBER .4% CONDNS WB=>MCDB 1,5.6362501381E-002,0.2936065094,Pass,Pass,7.0221723851E-002,0.3743188760,Pass,Pass
 Warmup Convergence Information,ZONE OFFICE WHOLEBUILDING - LG OFFICE C END_B - STORY MID14,SizingPeriod: JACKSONVILLE INTNL SEPTEMBER .4% CONDNS WB=>MCDB 1,5.6359696995E-002,0.2902309580,Pass,Pass,6.9568852022E-002,0.3734346139,Pass,Pass
 Warmup Convergence Information,ZONE OFFICE WHOLEBUILDING - LG OFFICE C END_B - STORY MID15,SizingPeriod: JACKSONVILLE INTNL SEPTEMBER .4% CONDNS WB=>MCDB 1,5.6356464909E-002,0.2868579079,Pass,Pass,6.8976812658E-002,0.3724793972,Pass,Pass
 Warmup Convergence Information,ZONE OFFICE WHOLEBUILDING - LG OFFICE C END_B - STORY MID16,SizingPeriod: JACKSONVILLE INTNL SEPTEMBER .4% CONDNS WB=>MCDB 1,5.6353194903E-002,0.2835796383,Pass,Pass,6.8333994702E-002,0.3707146695,Pass,Pass
 Warmup Convergence Information,ZONE OFFICE WHOLEBUILDING - LG OFFICE C END_B - STORY MID17,SizingPeriod: JACKSONVILLE INTNL SEPTEMBER .4% CONDNS WB=>MCDB 1,5.6353142052E-002,0.2802903080,Pass,Pass,6.7690327719E-002,0.3702809770,Pass,Pass
 Warmup Convergence Information,ZONE OFFICE WHOLEBUILDING - LG OFFICE C END_B - STORY MID18,SizingPeriod: JACKSONVILLE INTNL SEPTEMBER .4% CONDNS WB=>MCDB 1,5.6350295003E-002,0.2771174509,Pass,Pass,6.6915822412E-002,0.3687595439,Pass,Pass
 Warmup Convergence Information,ZONE OFFICE WHOLEBUILDING - LG OFFICE C END_B - STORY MID2,SizingPeriod: JACKSONVILLE INTNL SEPTEMBER .4% CONDNS WB=>MCDB 1,5.6250000000E-002,0.3091441456,Pass,Pass,6.6603141092E-002,0.3958608193,Pass,Pass
 Warmup Convergence Information,ZONE OFFICE WHOLEBUILDING - LG OFFICE C END_B - STORY MID3,SizingPeriod: JACKSONVILLE INTNL SEPTEMBER .4% CONDNS WB=>MCDB 1,5.6250000000E-002,0.3079956247,Pass,Pass,6.6959413279E-002,0.3932131801,Pass,Pass
 Warmup Convergence Information,ZONE OFFICE WHOLEBUILDING - LG OFFICE C END_B - STORY MID4,SizingPeriod: JACKSONVILLE INTNL SEPTEMBER .4% CONDNS WB=>MCDB 1,5.6345437759E-002,0.3074043813,Pass,Pass,6.7630868043E-002,0.3915991768,Pass,Pass
 Warmup Convergence Information,ZONE OFFICE WHOLEBUILDING - LG OFFICE C END_B - STORY MID5,SizingPeriod: JACKSONVILLE INTNL SEPTEMBER .4% CONDNS WB=>MCDB 1,5.6347436748E-002,0.3064345404,Pass,Pass,6.8265445761E-002,0.3903638738,Pass,Pass
 Warmup Convergence Information,ZONE OFFICE WHOLEBUILDING - LG OFFICE C END_B - STORY MID6,SizingPeriod: JACKSONVILLE INTNL SEPTEMBER .4% CONDNS WB=>MCDB 1,5.6349735984E-002,0.3048344359,Pass,Pass,6.6107973063E-002,0.3872385779,Pass,Pass
 Warmup Convergence Information,ZONE OFFICE WHOLEBUILDING - LG OFFICE C END_B - STORY MID7,SizingPeriod: JACKSONVILLE INTNL SEPTEMBER .4% CONDNS WB=>MCDB 1,5.6352692400E-002,0.3040581165,Pass,Pass,6.6416750636E-002,0.3852438709,Pass,Pass
 Warmup Convergence Information,ZONE OFFICE WHOLEBUILDING - LG OFFICE C END_B - STORY MID8,SizingPeriod: JACKSONVILLE INTNL SEPTEMBER .4% CONDNS WB=>MCDB 1,5.6359185464E-002,0.3034933842,Pass,Pass,6.6375461760E-002,0.3797817418,Pass,Pass
 Warmup Convergence Information,ZONE OFFICE WHOLEBUILDING - LG OFFICE C END_B - STORY MID9,SizingPeriod: JACKSONVILLE INTNL SEPTEMBER .4% CONDNS WB=>MCDB 1,5.6362660875E-002,0.3028609238,Pass,Pass,6.7111146811E-002,0.3805916835,Pass,Pass
 Warmup Convergence Information,ZONE OFFICE WHOLEBUILDING - LG OFFICE C END_B - STORY TOP,SizingPeriod: JACKSONVILLE INTNL SEPTEMBER .4% CONDNS WB=>MCDB 1,5.6350412870E-002,0.2286899213,Pass,Pass,7.0629045857E-002,0.3420796046,Pass,Pass
Environment,JACKSONVILLE INTNL ANN CLG .4% CONDNS DB=>MWB 1 HVAC Sizing Pass 1,SizingPeriod:DesignDay,07/21,07/21,SummerDesignDay,1,N/A,N/A,N/A,N/A,N/A,N/A,Clark and Allen
Environment:Daylight Saving,No,SizingPeriod:DesignDay
Environment,JACKSONVILLE INTNL ANN CLG .4% CONDNS WB=>MDB 1 HVAC Sizing Pass 1,SizingPeriod:DesignDay,07/21,07/21,SummerDesignDay,1,N/A,N/A,N/A,N/A,N/A,N/A,Clark and Allen
Environment:Daylight Saving,No,SizingPeriod:DesignDay
Environment,JACKSONVILLE INTNL ANN CLG 1% CONDNS DB=>MWB 1 HVAC Sizing Pass 1,SizingPeriod:DesignDay,07/21,07/21,SummerDesignDay,1,N/A,N/A,N/A,N/A,N/A,N/A,Clark and Allen
Environment:Daylight Saving,No,SizingPeriod:DesignDay
Environment,JACKSONVILLE INTNL ANN CLG 2% CONDNS DP=>MDB 1 HVAC Sizing Pass 1,SizingPeriod:DesignDay,07/21,07/21,SummerDesignDay,1,N/A,N/A,N/A,N/A,N/A,N/A,Clark and Allen
Environment:Daylight Saving,No,SizingPeriod:DesignDay
Environment,JACKSONVILLE INTNL ANN HTG 99% CONDNS DB 1 HVAC Sizing Pass 1,SizingPeriod:DesignDay,01/21,01/21,WinterDesignDay,1,N/A,N/A,N/A,N/A,N/A,N/A,Clark and Allen
Environment:Daylight Saving,No,SizingPeriod:DesignDay
Environment,JACKSONVILLE INTNL ANN HTG 99.6% CONDNS DB 1 HVAC Sizing Pass 1,SizingPeriod:DesignDay,01/21,01/21,WinterDesignDay,1,N/A,N/A,N/A,N/A,N/A,N/A,Clark and Allen
Environment:Daylight Saving,No,SizingPeriod:DesignDay
Environment,JACKSONVILLE INTNL ANN HTG WIND 99% CONDNS WS=>MCDB 1 HVAC Sizing Pass 1,SizingPeriod:DesignDay,01/21,01/21,WinterDesignDay,1,N/A,N/A,N/A,N/A,N/A,N/A,Clark and Allen
Environment:Daylight Saving,No,SizingPeriod:DesignDay
Environment,JACKSONVILLE INTNL APRIL .4% CONDNS DB=>MCWB 1 HVAC Sizing Pass 1,SizingPeriod:DesignDay,04/21,04/21,SummerDesignDay,1,N/A,N/A,N/A,N/A,N/A,N/A,Clark and Allen
Environment:Daylight Saving,No,SizingPeriod:DesignDay
Environment,JACKSONVILLE INTNL APRIL .4% CONDNS WB=>MCDB 1 HVAC Sizing Pass 1,SizingPeriod:DesignDay,04/21,04/21,SummerDesignDay,1,N/A,N/A,N/A,N/A,N/A,N/A,Clark and Allen
Environment:Daylight Saving,No,SizingPeriod:DesignDay
Environment,JACKSONVILLE INTNL AUGUST .4% CONDNS DB=>MCWB 1 HVAC Sizing Pass 1,SizingPeriod:DesignDay,08/21,08/21,SummerDesignDay,1,N/A,N/A,N/A,N/A,N/A,N/A,Clark and Allen
Environment:Daylight Saving,No,SizingPeriod:DesignDay
Environment,JACKSONVILLE INTNL AUGUST .4% CONDNS WB=>MCDB 1 HVAC Sizing Pass 1,SizingPeriod:DesignDay,08/21,08/21,SummerDesignDay,1,N/A,N/A,N/A,N/A,N/A,N/A,Clark and Allen
Environment:Daylight Saving,No,SizingPeriod:DesignDay
Environment,JACKSONVILLE INTNL DECEMBER .4% CONDNS DB=>MCWB 1 HVAC Sizing Pass 1,SizingPeriod:DesignDay,12/21,12/21,SummerDesignDay,1,N/A,N/A,N/A,N/A,N/A,N/A,Clark and Allen
Environment:Daylight Saving,No,SizingPeriod:DesignDay
Environment,JACKSONVILLE INTNL DECEMBER .4% CONDNS WB=>MCDB 1 HVAC Sizing Pass 1,SizingPeriod:DesignDay,12/21,12/21,SummerDesignDay,1,N/A,N/A,N/A,N/A,N/A,N/A,Clark and Allen
Environment:Daylight Saving,No,SizingPeriod:DesignDay
Environment,JACKSONVILLE INTNL FEBRUARY .4% CONDNS DB=>MCWB 1 HVAC Sizing Pass 1,SizingPeriod:DesignDay,02/21,02/21,SummerDesignDay,1,N/A,N/A,N/A,N/A,N/A,N/A,Clark and Allen
Environment:Daylight Saving,No,SizingPeriod:DesignDay
Environment,JACKSONVILLE INTNL FEBRUARY .4% CONDNS WB=>MCDB 1 HVAC Sizing Pass 1,SizingPeriod:DesignDay,02/21,02/21,SummerDesignDay,1,N/A,N/A,N/A,N/A,N/A,N/A,Clark and Allen
Environment:Daylight Saving,No,SizingPeriod:DesignDay
Environment,JACKSONVILLE INTNL JANUARY .4% CONDNS DB=>MCWB 1 HVAC Sizing Pass 1,SizingPeriod:DesignDay,01/21,01/21,SummerDesignDay,1,N/A,N/A,N/A,N/A,N/A,N/A,Clark and Allen
Environment:Daylight Saving,No,SizingPeriod:DesignDay
Environment,JACKSONVILLE INTNL JANUARY .4% CONDNS WB=>MCDB 1 HVAC Sizing Pass 1,SizingPeriod:DesignDay,01/21,01/21,SummerDesignDay,1,N/A,N/A,N/A,N/A,N/A,N/A,Clark and Allen
Environment:Daylight Saving,No,SizingPeriod:DesignDay
Environment,JACKSONVILLE INTNL JULY .4% CONDNS DB=>MCWB 1 HVAC Sizing Pass 1,SizingPeriod:DesignDay,07/21,07/21,SummerDesignDay,1,N/A,N/A,N/A,N/A,N/A,N/A,Clark and Allen
Environment:Daylight Saving,No,SizingPeriod:DesignDay
Environment,JACKSONVILLE INTNL JULY .4% CONDNS WB=>MCDB 1 HVAC Sizing Pass 1,SizingPeriod:DesignDay,07/21,07/21,SummerDesignDay,1,N/A,N/A,N/A,N/A,N/A,N/A,Clark and Allen
Environment:Daylight Saving,No,SizingPeriod:DesignDay
Environment,JACKSONVILLE INTNL JUNE .4% CONDNS DB=>MCWB 1 HVAC Sizing Pass 1,SizingPeriod:DesignDay,06/21,06/21,SummerDesignDay,1,N/A,N/A,N/A,N/A,N/A,N/A,Clark and Allen
Environment:Daylight Saving,No,SizingPeriod:DesignDay
Environment,JACKSONVILLE INTNL JUNE .4% CONDNS WB=>MCDB 1 HVAC Sizing Pass 1,SizingPeriod:DesignDay,06/21,06/21,SummerDesignDay,1,N/A,N/A,N/A,N/A,N/A,N/A,Clark and Allen
Environment:Daylight Saving,No,SizingPeriod:DesignDay
Environment,JACKSONVILLE INTNL MARCH .4% CONDNS DB=>MCWB 1 HVAC Sizing Pass 1,SizingPeriod:DesignDay,03/21,03/21,SummerDesignDay,1,N/A,N/A,N/A,N/A,N/A,N/A,Clark and Allen
Environment:Daylight Saving,No,SizingPeriod:DesignDay
Environment,JACKSONVILLE INTNL MARCH .4% CONDNS WB=>MCDB 1 HVAC Sizing Pass 1,SizingPeriod:DesignDay,03/21,03/21,SummerDesignDay,1,N/A,N/A,N/A,N/A,N/A,N/A,Clark and Allen
Environment:Daylight Saving,No,SizingPeriod:DesignDay
Environment,JACKSONVILLE INTNL MAY .4% CONDNS DB=>MCWB 1 HVAC Sizing Pass 1,SizingPeriod:DesignDay,05/21,05/21,SummerDesignDay,1,N/A,N/A,N/A,N/A,N/A,N/A,Clark and Allen
Environment:Daylight Saving,No,SizingPeriod:DesignDay
Environment,JACKSONVILLE INTNL MAY .4% CONDNS WB=>MCDB 1 HVAC Sizing Pass 1,SizingPeriod:DesignDay,05/21,05/21,SummerDesignDay,1,N/A,N/A,N/A,N/A,N/A,N/A,Clark and Allen
Environment:Daylight Saving,No,SizingPeriod:DesignDay
Environment,JACKSONVILLE INTNL NOVEMBER .4% CONDNS DB=>MCWB 1 HVAC Sizing Pass 1,SizingPeriod:DesignDay,11/21,11/21,SummerDesignDay,1,N/A,N/A,N/A,N/A,N/A,N/A,Clark and Allen
Environment:Daylight Saving,No,SizingPeriod:DesignDay
Environment,JACKSONVILLE INTNL NOVEMBER .4% CONDNS WB=>MCDB 1 HVAC Sizing Pass 1,SizingPeriod:DesignDay,11/21,11/21,SummerDesignDay,1,N/A,N/A,N/A,N/A,N/A,N/A,Clark and Allen
Environment:Daylight Saving,No,SizingPeriod:DesignDay
Environment,JACKSONVILLE INTNL OCTOBER .4% CONDNS DB=>MCWB 1 HVAC Sizing Pass 1,SizingPeriod:DesignDay,10/21,10/21,SummerDesignDay,1,N/A,N/A,N/A,N/A,N/A,N/A,Clark and Allen
Environment:Daylight Saving,No,SizingPeriod:DesignDay
Environment,JACKSONVILLE INTNL OCTOBER .4% CONDNS WB=>MCDB 1 HVAC Sizing Pass 1,SizingPeriod:DesignDay,10/21,10/21,SummerDesignDay,1,N/A,N/A,N/A,N/A,N/A,N/A,Clark and Allen
Environment:Daylight Saving,No,SizingPeriod:DesignDay
Environment,JACKSONVILLE INTNL SEPTEMBER .4% CONDNS DB=>MCWB 1 HVAC Sizing Pass 1,SizingPeriod:DesignDay,09/21,09/21,SummerDesignDay,1,N/A,N/A,N/A,N/A,N/A,N/A,Clark and Allen
Environment:Daylight Saving,No,SizingPeriod:DesignDay
Environment,JACKSONVILLE INTNL SEPTEMBER .4% CONDNS WB=>MCDB 1 HVAC Sizing Pass 1,SizingPeriod:DesignDay,09/21,09/21,SummerDesignDay,1,N/A,N/A,N/A,N/A,N/A,N/A,Clark and Allen
Environment:Daylight Saving,No,SizingPeriod:DesignDay
! <Program Control Information:Threads/Parallel Sims>, Threading Supported,Maximum Number of Threads, Env Set Threads (OMP_NUM_THREADS), EP Env Set Threads (EP_OMP_NUM_THREADS), IDF Set Threads, Number of Threads Used (Interior Radiant Exchange), Number Nominal Surfaces, Number Parallel Sims
Program Control:Threads/Parallel Sims, No,1, N/A, N/A, N/A, N/A, N/A, N/A
End of Data
