{
   "completed_at" : "20240124T181441Z",
   "completed_status" : "Fail",
   "created_at" : "2024-01-24T10:52:51.710299",
   "current_step" : 9,
   "eplusout_err" : "Program Version,EnergyPlus, Version 23.2.0-7636e6b3e9, YMD=2024.01.24 11:10,\n   ** Warning ** Timestep: Requested number (1) is less than the suggested minimum of 4.\n   **   ~~~   ** Please see entry for Timestep in Input/Output Reference for discussion of considerations.\n   ************* Beginning Zone Sizing Calculations\n   ** Warning ** ProcessScheduleInput: DecodeHHMMField, Invalid \"until\" field value is not a multiple of the minutes for each timestep: 00:15\n   **   ~~~   ** Other errors may result. Occurred in Day Schedule=OFFICE BLDG_LIGHT_ENDUSEDATA DEFAULT 1\n   ** Warning ** ProcessScheduleInput: DecodeHHMMField, Invalid \"until\" field value is not a multiple of the minutes for each timestep: 00:30\n   **   ~~~   ** Other errors may result. Occurred in Day Schedule=OFFICE BLDG_LIGHT_ENDUSEDATA DEFAULT 1\n   ** Warning ** ProcessScheduleInput: DecodeHHMMField, Invalid \"until\" field value is not a multiple of the minutes for each timestep: 00:45\n   **   ~~~   ** Other errors may result. Occurred in Day Schedule=OFFICE BLDG_LIGHT_ENDUSEDATA DEFAULT 1\n   ** Warning ** ProcessScheduleInput: DecodeHHMMField, Invalid \"until\" field value is not a multiple of the minutes for each timestep: 01:15\n   **   ~~~   ** Other errors may result. Occurred in Day Schedule=OFFICE BLDG_LIGHT_ENDUSEDATA DEFAULT 1\n   ** Warning ** ProcessScheduleInput: DecodeHHMMField, Invalid \"until\" field value is not a multiple of the minutes for each timestep: 01:30\n   **   ~~~   ** Other errors may result. Occurred in Day Schedule=OFFICE BLDG_LIGHT_ENDUSEDATA DEFAULT 1\n   ** Warning ** ProcessScheduleInput: DecodeHHMMField, Invalid \"until\" field value is not a multiple of the minutes for each timestep: 01:45\n   **   ~~~   ** Other errors may result. Occurred in Day Schedule=OFFICE BLDG_LIGHT_ENDUSEDATA DEFAULT 1\n   ** Warning ** ProcessScheduleInput: DecodeHHMMField, Invalid \"until\" field value is not a multiple of the minutes for each timestep: 02:15\n   **   ~~~   ** Other errors may result. Occurred in Day Schedule=OFFICE BLDG_LIGHT_ENDUSEDATA DEFAULT 1\n   ** Warning ** ProcessScheduleInput: DecodeHHMMField, Invalid \"until\" field value is not a multiple of the minutes for each timestep: 02:30\n   **   ~~~   ** Other errors may result. Occurred in Day Schedule=OFFICE BLDG_LIGHT_ENDUSEDATA DEFAULT 1\n   ** Warning ** ProcessScheduleInput: DecodeHHMMField, Invalid \"until\" field value is not a multiple of the minutes for each timestep: 02:45\n   **   ~~~   ** Other errors may result. Occurred in Day Schedule=OFFICE BLDG_LIGHT_ENDUSEDATA DEFAULT 1\n   ** Warning ** ProcessScheduleInput: DecodeHHMMField, Invalid \"until\" field value is not a multiple of the minutes for each timestep: 03:15\n   **   ~~~   ** Other errors may result. Occurred in Day Schedule=OFFICE BLDG_LIGHT_ENDUSEDATA DEFAULT 1\n   ** Warning ** ProcessScheduleInput: DecodeHHMMField, Invalid \"until\" field value is not a multiple of the minutes for each timestep: 03:30\n   **   ~~~   ** Other errors may result. Occurred in Day Schedule=OFFICE BLDG_LIGHT_ENDUSEDATA DEFAULT 1\n   ** Warning ** ProcessScheduleInput: DecodeHHMMField, Invalid \"until\" field value is not a multiple of the minutes for each timestep: 03:45\n   **   ~~~   ** Other errors may result. Occurred in Day Schedule=OFFICE BLDG_LIGHT_ENDUSEDATA DEFAULT 1\n   ** Warning ** ProcessScheduleInput: DecodeHHMMField, Invalid \"until\" field value is not a multiple of the minutes for each timestep: 04:15\n   **   ~~~   ** Other errors may result. Occurred in Day Schedule=OFFICE BLDG_LIGHT_ENDUSEDATA DEFAULT 1\n   ** Warning ** ProcessScheduleInput: DecodeHHMMField, Invalid \"until\" field value is not a multiple of the minutes for each timestep: 04:30\n   **   ~~~   ** Other errors may result. Occurred in Day Schedule=OFFICE BLDG_LIGHT_ENDUSEDATA DEFAULT 1\n   ** Warning ** ProcessScheduleInput: DecodeHHMMField, Invalid \"until\" field value is not a multiple of the minutes for each timestep: 04:45\n   **   ~~~   ** Other errors may result. Occurred in Day Schedule=OFFICE BLDG_LIGHT_ENDUSEDATA DEFAULT 1\n   ** Warning ** ProcessScheduleInput: DecodeHHMMField, Invalid \"until\" field value is not a multiple of the minutes for each timestep: 05:15\n   **   ~~~   ** Other errors may result. Occurred in Day Schedule=OFFICE BLDG_LIGHT_ENDUSEDATA DEFAULT 1\n   ** Warning ** ProcessScheduleInput: DecodeHHMMField, Invalid \"until\" field value is not a multiple of the minutes for each timestep: 05:30\n   **   ~~~   ** Other errors may result. Occurred in Day Schedule=OFFICE BLDG_LIGHT_ENDUSEDATA DEFAULT 1\n   ** Warning ** ProcessScheduleInput: DecodeHHMMField, Invalid \"until\" field value is not a multiple of the minutes for each timestep: 05:45\n   **   ~~~   ** Other errors may result. Occurred in Day Schedule=OFFICE BLDG_LIGHT_ENDUSEDATA DEFAULT 1\n   ** Warning ** ProcessScheduleInput: DecodeHHMMField, Invalid \"until\" field value is not a multiple of the minutes for each timestep: 06:15\n   **   ~~~   ** Other errors may result. Occurred in Day Schedule=OFFICE BLDG_LIGHT_ENDUSEDATA DEFAULT 1\n   ** Warning ** ProcessScheduleInput: DecodeHHMMField, Invalid \"until\" field value is not a multiple of the minutes for each timestep: 06:30\n   **   ~~~   ** Other errors may result. Occurred in Day Schedule=OFFICE BLDG_LIGHT_ENDUSEDATA DEFAULT 1\n   ** Warning ** ProcessScheduleInput: DecodeHHMMField, Invalid \"until\" field value is not a multiple of the minutes for each timestep: 06:45\n   **   ~~~   ** Other errors may result. Occurred in Day Schedule=OFFICE BLDG_LIGHT_ENDUSEDATA DEFAULT 1\n   ** Warning ** ProcessScheduleInput: DecodeHHMMField, Invalid \"until\" field value is not a multiple of the minutes for each timestep: 07:15\n   **   ~~~   ** Other errors may result. Occurred in Day Schedule=OFFICE BLDG_LIGHT_ENDUSEDATA DEFAULT 1\n   ** Warning ** ProcessScheduleInput: DecodeHHMMField, Invalid \"until\" field value is not a multiple of the minutes for each timestep: 07:30\n   **   ~~~   ** Other errors may result. Occurred in Day Schedule=OFFICE BLDG_LIGHT_ENDUSEDATA DEFAULT 1\n   ** Warning ** ProcessScheduleInput: DecodeHHMMField, Invalid \"until\" field value is not a multiple of the minutes for each timestep: 07:45\n   **   ~~~   ** Other errors may result. Occurred in Day Schedule=OFFICE BLDG_LIGHT_ENDUSEDATA DEFAULT 1\n   ** Warning ** ProcessScheduleInput: DecodeHHMMField, Invalid \"until\" field value is not a multiple of the minutes for each timestep: 08:15\n   **   ~~~   ** Other errors may result. Occurred in Day Schedule=OFFICE BLDG_LIGHT_ENDUSEDATA DEFAULT 1\n   ** Warning ** ProcessScheduleInput: DecodeHHMMField, Invalid \"until\" field value is not a multiple of the minutes for each timestep: 08:30\n   **   ~~~   ** Other errors may result. Occurred in Day Schedule=OFFICE BLDG_LIGHT_ENDUSEDATA DEFAULT 1\n   ** Warning ** ProcessScheduleInput: DecodeHHMMField, Invalid \"until\" field value is not a multiple of the minutes for each timestep: 08:45\n   **   ~~~   ** Other errors may result. Occurred in Day Schedule=OFFICE BLDG_LIGHT_ENDUSEDATA DEFAULT 1\n   ** Warning ** ProcessScheduleInput: DecodeHHMMField, Invalid \"until\" field value is not a multiple of the minutes for each timestep: 09:11\n   **   ~~~   ** Other errors may result. Occurred in Day Schedule=OFFICE BLDG_LIGHT_ENDUSEDATA DEFAULT 1\n   ** Warning ** ProcessScheduleInput: DecodeHHMMField, Invalid \"until\" field value is not a multiple of the minutes for each timestep: 09:26\n   **   ~~~   ** Other errors may result. Occurred in Day Schedule=OFFICE BLDG_LIGHT_ENDUSEDATA DEFAULT 1\n   ** Warning ** ProcessScheduleInput: DecodeHHMMField, Invalid \"until\" field value is not a multiple of the minutes for each timestep: 09:41\n   **   ~~~   ** Other errors may result. Occurred in Day Schedule=OFFICE BLDG_LIGHT_ENDUSEDATA DEFAULT 1\n   ** Warning ** ProcessScheduleInput: DecodeHHMMField, Invalid \"until\" field value is not a multiple of the minutes for each timestep: 09:52\n   **   ~~~   ** Other errors may result. Occurred in Day Schedule=OFFICE BLDG_LIGHT_ENDUSEDATA DEFAULT 1\n   ** Warning ** ProcessScheduleInput: DecodeHHMMField, Invalid \"until\" field value is not a multiple of the minutes for each timestep: 10:07\n   **   ~~~   ** Other errors may result. Occurred in Day Schedule=OFFICE BLDG_LIGHT_ENDUSEDATA DEFAULT 1\n   ** Warning ** ProcessScheduleInput: DecodeHHMMField, Invalid \"until\" field value is not a multiple of the minutes for each timestep: 10:22\n   **   ~~~   ** Other errors may result. Occurred in Day Schedule=OFFICE BLDG_LIGHT_ENDUSEDATA DEFAULT 1\n   ** Warning ** ProcessScheduleInput: DecodeHHMMField, Invalid \"until\" field value is not a multiple of the minutes for each timestep: 10:37\n   **   ~~~   ** Other errors may result. Occurred in Day Schedule=OFFICE BLDG_LIGHT_ENDUSEDATA DEFAULT 1\n   ** Warning ** ProcessScheduleInput: DecodeHHMMField, Invalid \"until\" field value is not a multiple of the minutes for each timestep: 10:52\n   **   ~~~   ** Other errors may result. Occurred in Day Schedule=OFFICE BLDG_LIGHT_ENDUSEDATA DEFAULT 1\n   ** Warning ** ProcessScheduleInput: DecodeHHMMField, Invalid \"until\" field value is not a multiple of the minutes for each timestep: 11:07\n   **   ~~~   ** Other errors may result. Occurred in Day Schedule=OFFICE BLDG_LIGHT_ENDUSEDATA DEFAULT 1\n   ** Warning ** ProcessScheduleInput: DecodeHHMMField, Invalid \"until\" field value is not a multiple of the minutes for each timestep: 11:22\n   **   ~~~   ** Other errors may result. Occurred in Day Schedule=OFFICE BLDG_LIGHT_ENDUSEDATA DEFAULT 1\n   ** Warning ** ProcessScheduleInput: DecodeHHMMField, Invalid \"until\" field value is not a multiple of the minutes for each timestep: 11:37\n   **   ~~~   ** Other errors may result. Occurred in Day Schedule=OFFICE BLDG_LIGHT_ENDUSEDATA DEFAULT 1\n   ** Warning ** ProcessScheduleInput: DecodeHHMMField, Invalid \"until\" field value is not a multiple of the minutes for each timestep: 11:52\n   **   ~~~   ** Other errors may result. Occurred in Day Schedule=OFFICE BLDG_LIGHT_ENDUSEDATA DEFAULT 1\n   ** Warning ** ProcessScheduleInput: DecodeHHMMField, Invalid \"until\" field value is not a multiple of the minutes for each timestep: 12:07\n   **   ~~~   ** Other errors may result. Occurred in Day Schedule=OFFICE BLDG_LIGHT_ENDUSEDATA DEFAULT 1\n   ** Warning ** ProcessScheduleInput: DecodeHHMMField, Invalid \"until\" field value is not a multiple of the minutes for each timestep: 12:22\n   **   ~~~   ** Other errors may result. Occurred in Day Schedule=OFFICE BLDG_LIGHT_ENDUSEDATA DEFAULT 1\n   ** Warning ** ProcessScheduleInput: DecodeHHMMField, Invalid \"until\" field value is not a multiple of the minutes for each timestep: 12:37\n   **   ~~~   ** Other errors may result. Occurred in Day Schedule=OFFICE BLDG_LIGHT_ENDUSEDATA DEFAULT 1\n   ** Warning ** ProcessScheduleInput: DecodeHHMMField, Invalid \"until\" field value is not a multiple of the minutes for each timestep: 12:52\n   **   ~~~   ** Other errors may result. Occurred in Day Schedule=OFFICE BLDG_LIGHT_ENDUSEDATA DEFAULT 1\n   ** Warning ** ProcessScheduleInput: DecodeHHMMField, Invalid \"until\" field value is not a multiple of the minutes for each timestep: 13:07\n   **   ~~~   ** Other errors may result. Occurred in Day Schedule=OFFICE BLDG_LIGHT_ENDUSEDATA DEFAULT 1\n   ** Warning ** ProcessScheduleInput: DecodeHHMMField, Invalid \"until\" field value is not a multiple of the minutes for each timestep: 13:22\n   **   ~~~   ** Other errors may result. Occurred in Day Schedule=OFFICE BLDG_LIGHT_ENDUSEDATA DEFAULT 1\n   ** Warning ** ProcessScheduleInput: DecodeHHMMField, Invalid \"until\" field value is not a multiple of the minutes for each timestep: 13:33\n   **   ~~~   ** Other errors may result. Occurred in Day Schedule=OFFICE BLDG_LIGHT_ENDUSEDATA DEFAULT 1\n   ** Warning ** ProcessScheduleInput: DecodeHHMMField, Invalid \"until\" field value is not a multiple of the minutes for each timestep: 13:48\n   **   ~~~   ** Other errors may result. Occurred in Day Schedule=OFFICE BLDG_LIGHT_ENDUSEDATA DEFAULT 1\n   ** Warning ** ProcessScheduleInput: DecodeHHMMField, Invalid \"until\" field value is not a multiple of the minutes for each timestep: 14:03\n   **   ~~~   ** Other errors may result. Occurred in Day Schedule=OFFICE BLDG_LIGHT_ENDUSEDATA DEFAULT 1\n   ** Warning ** ProcessScheduleInput: DecodeHHMMField, Invalid \"until\" field value is not a multiple of the minutes for each timestep: 14:15\n   **   ~~~   ** Other errors may result. Occurred in Day Schedule=OFFICE BLDG_LIGHT_ENDUSEDATA DEFAULT 1\n   ** Warning ** ProcessScheduleInput: DecodeHHMMField, Invalid \"until\" field value is not a multiple of the minutes for each timestep: 14:30\n   **   ~~~   ** Other errors may result. Occurred in Day Schedule=OFFICE BLDG_LIGHT_ENDUSEDATA DEFAULT 1\n   ** Warning ** ProcessScheduleInput: DecodeHHMMField, Invalid \"until\" field value is not a multiple of the minutes for each timestep: 14:45\n   **   ~~~   ** Other errors may result. Occurred in Day Schedule=OFFICE BLDG_LIGHT_ENDUSEDATA DEFAULT 1\n   ** Warning ** ProcessScheduleInput: DecodeHHMMField, Invalid \"until\" field value is not a multiple of the minutes for each timestep: 15:15\n   **   ~~~   ** Other errors may result. Occurred in Day Schedule=OFFICE BLDG_LIGHT_ENDUSEDATA DEFAULT 1\n   ** Warning ** ProcessScheduleInput: DecodeHHMMField, Invalid \"until\" field value is not a multiple of the minutes for each timestep: 15:30\n   **   ~~~   ** Other errors may result. Occurred in Day Schedule=OFFICE BLDG_LIGHT_ENDUSEDATA DEFAULT 1\n   ** Warning ** ProcessScheduleInput: DecodeHHMMField, Invalid \"until\" field value is not a multiple of the minutes for each timestep: 15:45\n   **   ~~~   ** Other errors may result. Occurred in Day Schedule=OFFICE BLDG_LIGHT_ENDUSEDATA DEFAULT 1\n   ** Warning ** ProcessScheduleInput: DecodeHHMMField, Invalid \"until\" field value is not a multiple of the minutes for each timestep: 16:15\n   **   ~~~   ** Other errors may result. Occurred in Day Schedule=OFFICE BLDG_LIGHT_ENDUSEDATA DEFAULT 1\n   ** Warning ** ProcessScheduleInput: DecodeHHMMField, Invalid \"until\" field value is not a multiple of the minutes for each timestep: 16:30\n   **   ~~~   ** Other errors may result. Occurred in Day Schedule=OFFICE BLDG_LIGHT_ENDUSEDATA DEFAULT 1\n   ** Warning ** ProcessScheduleInput: DecodeHHMMField, Invalid \"until\" field value is not a multiple of the minutes for each timestep: 16:45\n   **   ~~~   ** Other errors may result. Occurred in Day Schedule=OFFICE BLDG_LIGHT_ENDUSEDATA DEFAULT 1\n   ** Warning ** ProcessScheduleInput: DecodeHHMMField, Invalid \"until\" field value is not a multiple of the minutes for each timestep: 17:15\n   **   ~~~   ** Other errors may result. Occurred in Day Schedule=OFFICE BLDG_LIGHT_ENDUSEDATA DEFAULT 1\n   ** Warning ** ProcessScheduleInput: DecodeHHMMField, Invalid \"until\" field value is not a multiple of the minutes for each timestep: 17:30\n   **   ~~~   ** Other errors may result. Occurred in Day Schedule=OFFICE BLDG_LIGHT_ENDUSEDATA DEFAULT 1\n   ** Warning ** ProcessScheduleInput: DecodeHHMMField, Invalid \"until\" field value is not a multiple of the minutes for each timestep: 17:45\n   **   ~~~   ** Other errors may result. Occurred in Day Schedule=OFFICE BLDG_LIGHT_ENDUSEDATA DEFAULT 1\n   ** Warning ** ProcessScheduleInput: DecodeHHMMField, Invalid \"until\" field value is not a multiple of the minutes for each timestep: 18:15\n   **   ~~~   ** Other errors may result. Occurred in Day Schedule=OFFICE BLDG_LIGHT_ENDUSEDATA DEFAULT 1\n   ** Warning ** ProcessScheduleInput: DecodeHHMMField, Invalid \"until\" field value is not a multiple of the minutes for each timestep: 18:30\n   **   ~~~   ** Other errors may result. Occurred in Day Schedule=OFFICE BLDG_LIGHT_ENDUSEDATA DEFAULT 1\n   ** Warning ** ProcessScheduleInput: DecodeHHMMField, Invalid \"until\" field value is not a multiple of the minutes for each timestep: 18:45\n   **   ~~~   ** Other errors may result. Occurred in Day Schedule=OFFICE BLDG_LIGHT_ENDUSEDATA DEFAULT 1\n   ** Warning ** ProcessScheduleInput: DecodeHHMMField, Invalid \"until\" field value is not a multiple of the minutes for each timestep: 19:15\n   **   ~~~   ** Other errors may result. Occurred in Day Schedule=OFFICE BLDG_LIGHT_ENDUSEDATA DEFAULT 1\n   ** Warning ** ProcessScheduleInput: DecodeHHMMField, Invalid \"until\" field value is not a multiple of the minutes for each timestep: 19:30\n   **   ~~~   ** Other errors may result. Occurred in Day Schedule=OFFICE BLDG_LIGHT_ENDUSEDATA DEFAULT 1\n   ** Warning ** ProcessScheduleInput: DecodeHHMMField, Invalid \"until\" field value is not a multiple of the minutes for each timestep: 19:45\n   **   ~~~   ** Other errors may result. Occurred in Day Schedule=OFFICE BLDG_LIGHT_ENDUSEDATA DEFAULT 1\n   ** Warning ** ProcessScheduleInput: DecodeHHMMField, Invalid \"until\" field value is not a multiple of the minutes for each timestep: 20:15\n   **   ~~~   ** Other errors may result. Occurred in Day Schedule=OFFICE BLDG_LIGHT_ENDUSEDATA DEFAULT 1\n   ** Warning ** ProcessScheduleInput: DecodeHHMMField, Invalid \"until\" field value is not a multiple of the minutes for each timestep: 20:30\n   **   ~~~   ** Other errors may result. Occurred in Day Schedule=OFFICE BLDG_LIGHT_ENDUSEDATA DEFAULT 1\n   ** Warning ** ProcessScheduleInput: DecodeHHMMField, Invalid \"until\" field value is not a multiple of the minutes for each timestep: 20:45\n   **   ~~~   ** Other errors may result. Occurred in Day Schedule=OFFICE BLDG_LIGHT_ENDUSEDATA DEFAULT 1\n   ** Warning ** ProcessScheduleInput: DecodeHHMMField, Invalid \"until\" field value is not a multiple of the minutes for each timestep: 21:15\n   **   ~~~   ** Other errors may result. Occurred in Day Schedule=OFFICE BLDG_LIGHT_ENDUSEDATA DEFAULT 1\n   ** Warning ** ProcessScheduleInput: DecodeHHMMField, Invalid \"until\" field value is not a multiple of the minutes for each timestep: 21:30\n   **   ~~~   ** Other errors may result. Occurred in Day Schedule=OFFICE BLDG_LIGHT_ENDUSEDATA DEFAULT 1\n   ** Warning ** ProcessScheduleInput: DecodeHHMMField, Invalid \"until\" field value is not a multiple of the minutes for each timestep: 21:45\n   **   ~~~   ** Other errors may result. Occurred in Day Schedule=OFFICE BLDG_LIGHT_ENDUSEDATA DEFAULT 1\n   ** Warning ** ProcessScheduleInput: DecodeHHMMField, Invalid \"until\" field value is not a multiple of the minutes for each timestep: 22:15\n   **   ~~~   ** Other errors may result. Occurred in Day Schedule=OFFICE BLDG_LIGHT_ENDUSEDATA DEFAULT 1\n   ** Warning ** ProcessScheduleInput: DecodeHHMMField, Invalid \"until\" field value is not a multiple of the minutes for each timestep: 22:30\n   **   ~~~   ** Other errors may result. Occurred in Day Schedule=OFFICE BLDG_LIGHT_ENDUSEDATA DEFAULT 1\n   ** Warning ** ProcessScheduleInput: DecodeHHMMField, Invalid \"until\" field value is not a multiple of the minutes for each timestep: 22:45\n   **   ~~~   ** Other errors may result. Occurred in Day Schedule=OFFICE BLDG_LIGHT_ENDUSEDATA DEFAULT 1\n   ** Warning ** ProcessScheduleInput: DecodeHHMMField, Invalid \"until\" field value is not a multiple of the minutes for each timestep: 23:15\n   **   ~~~   ** Other errors may result. Occurred in Day Schedule=OFFICE BLDG_LIGHT_ENDUSEDATA DEFAULT 1\n   ** Warning ** ProcessScheduleInput: DecodeHHMMField, Invalid \"until\" field value is not a multiple of the minutes for each timestep: 23:30\n   **   ~~~   ** Other errors may result. Occurred in Day Schedule=OFFICE BLDG_LIGHT_ENDUSEDATA DEFAULT 1\n   ** Warning ** ProcessScheduleInput: DecodeHHMMField, Invalid \"until\" field value is not a multiple of the minutes for each timestep: 23:45\n   **   ~~~   ** Other errors may result. Occurred in Day Schedule=OFFICE BLDG_LIGHT_ENDUSEDATA DEFAULT 1\n   ** Warning ** ProcessScheduleInput: DecodeHHMMField, Invalid \"until\" field value is not a multiple of the minutes for each timestep: 00:15\n   **   ~~~   ** Other errors may result. Occurred in Day Schedule=OFFICE BLDG_EQUIP_ENDUSEDATA DEFAULT 1\n   ** Warning ** ProcessScheduleInput: DecodeHHMMField, Invalid \"until\" field value is not a multiple of the minutes for each timestep: 00:30\n   **   ~~~   ** Other errors may result. Occurred in Day Schedule=OFFICE BLDG_EQUIP_ENDUSEDATA DEFAULT 1\n   ** Warning ** ProcessScheduleInput: DecodeHHMMField, Invalid \"until\" field value is not a multiple of the minutes for each timestep: 00:45\n   **   ~~~   ** Other errors may result. Occurred in Day Schedule=OFFICE BLDG_EQUIP_ENDUSEDATA DEFAULT 1\n   ** Warning ** ProcessScheduleInput: DecodeHHMMField, Invalid \"until\" field value is not a multiple of the minutes for each timestep: 01:15\n   **   ~~~   ** Other errors may result. Occurred in Day Schedule=OFFICE BLDG_EQUIP_ENDUSEDATA DEFAULT 1\n   ** Warning ** ProcessScheduleInput: DecodeHHMMField, Invalid \"until\" field value is not a multiple of the minutes for each timestep: 01:30\n   **   ~~~   ** Other errors may result. Occurred in Day Schedule=OFFICE BLDG_EQUIP_ENDUSEDATA DEFAULT 1\n   ** Warning ** ProcessScheduleInput: DecodeHHMMField, Invalid \"until\" field value is not a multiple of the minutes for each timestep: 01:45\n   **   ~~~   ** Other errors may result. Occurred in Day Schedule=OFFICE BLDG_EQUIP_ENDUSEDATA DEFAULT 1\n   ** Warning ** ProcessScheduleInput: DecodeHHMMField, Invalid \"until\" field value is not a multiple of the minutes for each timestep: 02:15\n   **   ~~~   ** Other errors may result. Occurred in Day Schedule=OFFICE BLDG_EQUIP_ENDUSEDATA DEFAULT 1\n   ** Warning ** ProcessScheduleInput: DecodeHHMMField, Invalid \"until\" field value is not a multiple of the minutes for each timestep: 02:30\n   **   ~~~   ** Other errors may result. Occurred in Day Schedule=OFFICE BLDG_EQUIP_ENDUSEDATA DEFAULT 1\n   ** Warning ** ProcessScheduleInput: DecodeHHMMField, Invalid \"until\" field value is not a multiple of the minutes for each timestep: 02:45\n   **   ~~~   ** Other errors may result. Occurred in Day Schedule=OFFICE BLDG_EQUIP_ENDUSEDATA DEFAULT 1\n   ** Warning ** ProcessScheduleInput: DecodeHHMMField, Invalid \"until\" field value is not a multiple of the minutes for each timestep: 03:15\n   **   ~~~   ** Other errors may result. Occurred in Day Schedule=OFFICE BLDG_EQUIP_ENDUSEDATA DEFAULT 1\n   ** Warning ** ProcessScheduleInput: DecodeHHMMField, Invalid \"until\" field value is not a multiple of the minutes for each timestep: 03:30\n   **   ~~~   ** Other errors may result. Occurred in Day Schedule=OFFICE BLDG_EQUIP_ENDUSEDATA DEFAULT 1\n   ** Warning ** ProcessScheduleInput: DecodeHHMMField, Invalid \"until\" field value is not a multiple of the minutes for each timestep: 03:45\n   **   ~~~   ** Other errors may result. Occurred in Day Schedule=OFFICE BLDG_EQUIP_ENDUSEDATA DEFAULT 1\n   ** Warning ** ProcessScheduleInput: DecodeHHMMField, Invalid \"until\" field value is not a multiple of the minutes for each timestep: 04:15\n   **   ~~~   ** Other errors may result. Occurred in Day Schedule=OFFICE BLDG_EQUIP_ENDUSEDATA DEFAULT 1\n   ** Warning ** ProcessScheduleInput: DecodeHHMMField, Invalid \"until\" field value is not a multiple of the minutes for each timestep: 04:30\n   **   ~~~   ** Other errors may result. Occurred in Day Schedule=OFFICE BLDG_EQUIP_ENDUSEDATA DEFAULT 1\n   ** Warning ** ProcessScheduleInput: DecodeHHMMField, Invalid \"until\" field value is not a multiple of the minutes for each timestep: 04:45\n   **   ~~~   ** Other errors may result. Occurred in Day Schedule=OFFICE BLDG_EQUIP_ENDUSEDATA DEFAULT 1\n   ** Warning ** ProcessScheduleInput: DecodeHHMMField, Invalid \"until\" field value is not a multiple of the minutes for each timestep: 05:15\n   **   ~~~   ** Other errors may result. Occurred in Day Schedule=OFFICE BLDG_EQUIP_ENDUSEDATA DEFAULT 1\n   ** Warning ** ProcessScheduleInput: DecodeHHMMField, Invalid \"until\" field value is not a multiple of the minutes for each timestep: 05:30\n   **   ~~~   ** Other errors may result. Occurred in Day Schedule=OFFICE BLDG_EQUIP_ENDUSEDATA DEFAULT 1\n   ** Warning ** ProcessScheduleInput: DecodeHHMMField, Invalid \"until\" field value is not a multiple of the minutes for each timestep: 05:45\n   **   ~~~   ** Other errors may result. Occurred in Day Schedule=OFFICE BLDG_EQUIP_ENDUSEDATA DEFAULT 1\n   ** Warning ** ProcessScheduleInput: DecodeHHMMField, Invalid \"until\" field value is not a multiple of the minutes for each timestep: 06:15\n   **   ~~~   ** Other errors may result. Occurred in Day Schedule=OFFICE BLDG_EQUIP_ENDUSEDATA DEFAULT 1\n   ** Warning ** ProcessScheduleInput: DecodeHHMMField, Invalid \"until\" field value is not a multiple of the minutes for each timestep: 06:30\n   **   ~~~   ** Other errors may result. Occurred in Day Schedule=OFFICE BLDG_EQUIP_ENDUSEDATA DEFAULT 1\n   ** Warning ** ProcessScheduleInput: DecodeHHMMField, Invalid \"until\" field value is not a multiple of the minutes for each timestep: 06:45\n   **   ~~~   ** Other errors may result. Occurred in Day Schedule=OFFICE BLDG_EQUIP_ENDUSEDATA DEFAULT 1\n   ** Warning ** ProcessScheduleInput: DecodeHHMMField, Invalid \"until\" field value is not a multiple of the minutes for each timestep: 07:15\n   **   ~~~   ** Other errors may result. Occurred in Day Schedule=OFFICE BLDG_EQUIP_ENDUSEDATA DEFAULT 1\n   ** Warning ** ProcessScheduleInput: DecodeHHMMField, Invalid \"until\" field value is not a multiple of the minutes for each timestep: 07:30\n   **   ~~~   ** Other errors may result. Occurred in Day Schedule=OFFICE BLDG_EQUIP_ENDUSEDATA DEFAULT 1\n   ** Warning ** ProcessScheduleInput: DecodeHHMMField, Invalid \"until\" field value is not a multiple of the minutes for each timestep: 07:45\n   **   ~~~   ** Other errors may result. Occurred in Day Schedule=OFFICE BLDG_EQUIP_ENDUSEDATA DEFAULT 1\n   ** Warning ** ProcessScheduleInput: DecodeHHMMField, Invalid \"until\" field value is not a multiple of the minutes for each timestep: 08:15\n   **   ~~~   ** Other errors may result. Occurred in Day Schedule=OFFICE BLDG_EQUIP_ENDUSEDATA DEFAULT 1\n   ** Warning ** ProcessScheduleInput: DecodeHHMMField, Invalid \"until\" field value is not a multiple of the minutes for each timestep: 08:30\n   **   ~~~   ** Other errors may result. Occurred in Day Schedule=OFFICE BLDG_EQUIP_ENDUSEDATA DEFAULT 1\n   ** Warning ** ProcessScheduleInput: DecodeHHMMField, Invalid \"until\" field value is not a multiple of the minutes for each timestep: 08:45\n   **   ~~~   ** Other errors may result. Occurred in Day Schedule=OFFICE BLDG_EQUIP_ENDUSEDATA DEFAULT 1\n   ** Warning ** ProcessScheduleInput: DecodeHHMMField, Invalid \"until\" field value is not a multiple of the minutes for each timestep: 09:11\n   **   ~~~   ** Other errors may result. Occurred in Day Schedule=OFFICE BLDG_EQUIP_ENDUSEDATA DEFAULT 1\n   ** Warning ** ProcessScheduleInput: DecodeHHMMField, Invalid \"until\" field value is not a multiple of the minutes for each timestep: 09:26\n   **   ~~~   ** Other errors may result. Occurred in Day Schedule=OFFICE BLDG_EQUIP_ENDUSEDATA DEFAULT 1\n   ** Warning ** ProcessScheduleInput: DecodeHHMMField, Invalid \"until\" field value is not a multiple of the minutes for each timestep: 09:41\n   **   ~~~   ** Other errors may result. Occurred in Day Schedule=OFFICE BLDG_EQUIP_ENDUSEDATA DEFAULT 1\n   ** Warning ** ProcessScheduleInput: DecodeHHMMField, Invalid \"until\" field value is not a multiple of the minutes for each timestep: 09:52\n   **   ~~~   ** Other errors may result. Occurred in Day Schedule=OFFICE BLDG_EQUIP_ENDUSEDATA DEFAULT 1\n   ** Warning ** ProcessScheduleInput: DecodeHHMMField, Invalid \"until\" field value is not a multiple of the minutes for each timestep: 10:07\n   **   ~~~   ** Other errors may result. Occurred in Day Schedule=OFFICE BLDG_EQUIP_ENDUSEDATA DEFAULT 1\n   ** Warning ** ProcessScheduleInput: DecodeHHMMField, Invalid \"until\" field value is not a multiple of the minutes for each timestep: 10:22\n   **   ~~~   ** Other errors may result. Occurred in Day Schedule=OFFICE BLDG_EQUIP_ENDUSEDATA DEFAULT 1\n   ** Warning ** ProcessScheduleInput: DecodeHHMMField, Invalid \"until\" field value is not a multiple of the minutes for each timestep: 10:37\n   **   ~~~   ** Other errors may result. Occurred in Day Schedule=OFFICE BLDG_EQUIP_ENDUSEDATA DEFAULT 1\n   ** Warning ** ProcessScheduleInput: DecodeHHMMField, Invalid \"until\" field value is not a multiple of the minutes for each timestep: 10:52\n   **   ~~~   ** Other errors may result. Occurred in Day Schedule=OFFICE BLDG_EQUIP_ENDUSEDATA DEFAULT 1\n   ** Warning ** ProcessScheduleInput: DecodeHHMMField, Invalid \"until\" field value is not a multiple of the minutes for each timestep: 11:07\n   **   ~~~   ** Other errors may result. Occurred in Day Schedule=OFFICE BLDG_EQUIP_ENDUSEDATA DEFAULT 1\n   ** Warning ** ProcessScheduleInput: DecodeHHMMField, Invalid \"until\" field value is not a multiple of the minutes for each timestep: 11:22\n   **   ~~~   ** Other errors may result. Occurred in Day Schedule=OFFICE BLDG_EQUIP_ENDUSEDATA DEFAULT 1\n   ** Warning ** ProcessScheduleInput: DecodeHHMMField, Invalid \"until\" field value is not a multiple of the minutes for each timestep: 11:37\n   **   ~~~   ** Other errors may result. Occurred in Day Schedule=OFFICE BLDG_EQUIP_ENDUSEDATA DEFAULT 1\n   ** Warning ** ProcessScheduleInput: DecodeHHMMField, Invalid \"until\" field value is not a multiple of the minutes for each timestep: 11:52\n   **   ~~~   ** Other errors may result. Occurred in Day Schedule=OFFICE BLDG_EQUIP_ENDUSEDATA DEFAULT 1\n   ** Warning ** ProcessScheduleInput: DecodeHHMMField, Invalid \"until\" field value is not a multiple of the minutes for each timestep: 12:07\n   **   ~~~   ** Other errors may result. Occurred in Day Schedule=OFFICE BLDG_EQUIP_ENDUSEDATA DEFAULT 1\n   ** Warning ** ProcessScheduleInput: DecodeHHMMField, Invalid \"until\" field value is not a multiple of the minutes for each timestep: 12:22\n   **   ~~~   ** Other errors may result. Occurred in Day Schedule=OFFICE BLDG_EQUIP_ENDUSEDATA DEFAULT 1\n   ** Warning ** ProcessScheduleInput: DecodeHHMMField, Invalid \"until\" field value is not a multiple of the minutes for each timestep: 12:37\n   **   ~~~   ** Other errors may result. Occurred in Day Schedule=OFFICE BLDG_EQUIP_ENDUSEDATA DEFAULT 1\n   ** Warning ** ProcessScheduleInput: DecodeHHMMField, Invalid \"until\" field value is not a multiple of the minutes for each timestep: 12:52\n   **   ~~~   ** Other errors may result. Occurred in Day Schedule=OFFICE BLDG_EQUIP_ENDUSEDATA DEFAULT 1\n   ** Warning ** ProcessScheduleInput: DecodeHHMMField, Invalid \"until\" field value is not a multiple of the minutes for each timestep: 13:07\n   **   ~~~   ** Other errors may result. Occurred in Day Schedule=OFFICE BLDG_EQUIP_ENDUSEDATA DEFAULT 1\n   ** Warning ** ProcessScheduleInput: DecodeHHMMField, Invalid \"until\" field value is not a multiple of the minutes for each timestep: 13:22\n   **   ~~~   ** Other errors may result. Occurred in Day Schedule=OFFICE BLDG_EQUIP_ENDUSEDATA DEFAULT 1\n   ** Warning ** ProcessScheduleInput: DecodeHHMMField, Invalid \"until\" field value is not a multiple of the minutes for each timestep: 13:33\n   **   ~~~   ** Other errors may result. Occurred in Day Schedule=OFFICE BLDG_EQUIP_ENDUSEDATA DEFAULT 1\n   ** Warning ** ProcessScheduleInput: DecodeHHMMField, Invalid \"until\" field value is not a multiple of the minutes for each timestep: 13:48\n   **   ~~~   ** Other errors may result. Occurred in Day Schedule=OFFICE BLDG_EQUIP_ENDUSEDATA DEFAULT 1\n   ** Warning ** ProcessScheduleInput: DecodeHHMMField, Invalid \"until\" field value is not a multiple of the minutes for each timestep: 14:03\n   **   ~~~   ** Other errors may result. Occurred in Day Schedule=OFFICE BLDG_EQUIP_ENDUSEDATA DEFAULT 1\n   ** Warning ** ProcessScheduleInput: DecodeHHMMField, Invalid \"until\" field value is not a multiple of the minutes for each timestep: 14:15\n   **   ~~~   ** Other errors may result. Occurred in Day Schedule=OFFICE BLDG_EQUIP_ENDUSEDATA DEFAULT 1\n   ** Warning ** ProcessScheduleInput: DecodeHHMMField, Invalid \"until\" field value is not a multiple of the minutes for each timestep: 14:30\n   **   ~~~   ** Other errors may result. Occurred in Day Schedule=OFFICE BLDG_EQUIP_ENDUSEDATA DEFAULT 1\n   ** Warning ** ProcessScheduleInput: DecodeHHMMField, Invalid \"until\" field value is not a multiple of the minutes for each timestep: 14:45\n   **   ~~~   ** Other errors may result. Occurred in Day Schedule=OFFICE BLDG_EQUIP_ENDUSEDATA DEFAULT 1\n   ** Warning ** ProcessScheduleInput: DecodeHHMMField, Invalid \"until\" field value is not a multiple of the minutes for each timestep: 15:15\n   **   ~~~   ** Other errors may result. Occurred in Day Schedule=OFFICE BLDG_EQUIP_ENDUSEDATA DEFAULT 1\n   ** Warning ** ProcessScheduleInput: DecodeHHMMField, Invalid \"until\" field value is not a multiple of the minutes for each timestep: 15:30\n   **   ~~~   ** Other errors may result. Occurred in Day Schedule=OFFICE BLDG_EQUIP_ENDUSEDATA DEFAULT 1\n   ** Warning ** ProcessScheduleInput: DecodeHHMMField, Invalid \"until\" field value is not a multiple of the minutes for each timestep: 15:45\n   **   ~~~   ** Other errors may result. Occurred in Day Schedule=OFFICE BLDG_EQUIP_ENDUSEDATA DEFAULT 1\n   ** Warning ** ProcessScheduleInput: DecodeHHMMField, Invalid \"until\" field value is not a multiple of the minutes for each timestep: 16:15\n   **   ~~~   ** Other errors may result. Occurred in Day Schedule=OFFICE BLDG_EQUIP_ENDUSEDATA DEFAULT 1\n   ** Warning ** ProcessScheduleInput: DecodeHHMMField, Invalid \"until\" field value is not a multiple of the minutes for each timestep: 16:30\n   **   ~~~   ** Other errors may result. Occurred in Day Schedule=OFFICE BLDG_EQUIP_ENDUSEDATA DEFAULT 1\n   ** Warning ** ProcessScheduleInput: DecodeHHMMField, Invalid \"until\" field value is not a multiple of the minutes for each timestep: 16:45\n   **   ~~~   ** Other errors may result. Occurred in Day Schedule=OFFICE BLDG_EQUIP_ENDUSEDATA DEFAULT 1\n   ** Warning ** ProcessScheduleInput: DecodeHHMMField, Invalid \"until\" field value is not a multiple of the minutes for each timestep: 17:15\n   **   ~~~   ** Other errors may result. Occurred in Day Schedule=OFFICE BLDG_EQUIP_ENDUSEDATA DEFAULT 1\n   ** Warning ** ProcessScheduleInput: DecodeHHMMField, Invalid \"until\" field value is not a multiple of the minutes for each timestep: 17:30\n   **   ~~~   ** Other errors may result. Occurred in Day Schedule=OFFICE BLDG_EQUIP_ENDUSEDATA DEFAULT 1\n   ** Warning ** ProcessScheduleInput: DecodeHHMMField, Invalid \"until\" field value is not a multiple of the minutes for each timestep: 17:45\n   **   ~~~   ** Other errors may result. Occurred in Day Schedule=OFFICE BLDG_EQUIP_ENDUSEDATA DEFAULT 1\n   ** Warning ** ProcessScheduleInput: DecodeHHMMField, Invalid \"until\" field value is not a multiple of the minutes for each timestep: 18:15\n   **   ~~~   ** Other errors may result. Occurred in Day Schedule=OFFICE BLDG_EQUIP_ENDUSEDATA DEFAULT 1\n   ** Warning ** ProcessScheduleInput: DecodeHHMMField, Invalid \"until\" field value is not a multiple of the minutes for each timestep: 18:30\n   **   ~~~   ** Other errors may result. Occurred in Day Schedule=OFFICE BLDG_EQUIP_ENDUSEDATA DEFAULT 1\n   ** Warning ** ProcessScheduleInput: DecodeHHMMField, Invalid \"until\" field value is not a multiple of the minutes for each timestep: 18:45\n   **   ~~~   ** Other errors may result. Occurred in Day Schedule=OFFICE BLDG_EQUIP_ENDUSEDATA DEFAULT 1\n   ** Warning ** ProcessScheduleInput: DecodeHHMMField, Invalid \"until\" field value is not a multiple of the minutes for each timestep: 19:15\n   **   ~~~   ** Other errors may result. Occurred in Day Schedule=OFFICE BLDG_EQUIP_ENDUSEDATA DEFAULT 1\n   ** Warning ** ProcessScheduleInput: DecodeHHMMField, Invalid \"until\" field value is not a multiple of the minutes for each timestep: 19:30\n   **   ~~~   ** Other errors may result. Occurred in Day Schedule=OFFICE BLDG_EQUIP_ENDUSEDATA DEFAULT 1\n   ** Warning ** ProcessScheduleInput: DecodeHHMMField, Invalid \"until\" field value is not a multiple of the minutes for each timestep: 19:45\n   **   ~~~   ** Other errors may result. Occurred in Day Schedule=OFFICE BLDG_EQUIP_ENDUSEDATA DEFAULT 1\n   ** Warning ** ProcessScheduleInput: DecodeHHMMField, Invalid \"until\" field value is not a multiple of the minutes for each timestep: 20:15\n   **   ~~~   ** Other errors may result. Occurred in Day Schedule=OFFICE BLDG_EQUIP_ENDUSEDATA DEFAULT 1\n   ** Warning ** ProcessScheduleInput: DecodeHHMMField, Invalid \"until\" field value is not a multiple of the minutes for each timestep: 20:30\n   **   ~~~   ** Other errors may result. Occurred in Day Schedule=OFFICE BLDG_EQUIP_ENDUSEDATA DEFAULT 1\n   ** Warning ** ProcessScheduleInput: DecodeHHMMField, Invalid \"until\" field value is not a multiple of the minutes for each timestep: 20:45\n   **   ~~~   ** Other errors may result. Occurred in Day Schedule=OFFICE BLDG_EQUIP_ENDUSEDATA DEFAULT 1\n   ** Warning ** ProcessScheduleInput: DecodeHHMMField, Invalid \"until\" field value is not a multiple of the minutes for each timestep: 21:15\n   **   ~~~   ** Other errors may result. Occurred in Day Schedule=OFFICE BLDG_EQUIP_ENDUSEDATA DEFAULT 1\n   ** Warning ** ProcessScheduleInput: DecodeHHMMField, Invalid \"until\" field value is not a multiple of the minutes for each timestep: 21:30\n   **   ~~~   ** Other errors may result. Occurred in Day Schedule=OFFICE BLDG_EQUIP_ENDUSEDATA DEFAULT 1\n   ** Warning ** ProcessScheduleInput: DecodeHHMMField, Invalid \"until\" field value is not a multiple of the minutes for each timestep: 21:45\n   **   ~~~   ** Other errors may result. Occurred in Day Schedule=OFFICE BLDG_EQUIP_ENDUSEDATA DEFAULT 1\n   ** Warning ** ProcessScheduleInput: DecodeHHMMField, Invalid \"until\" field value is not a multiple of the minutes for each timestep: 22:15\n   **   ~~~   ** Other errors may result. Occurred in Day Schedule=OFFICE BLDG_EQUIP_ENDUSEDATA DEFAULT 1\n   ** Warning ** ProcessScheduleInput: DecodeHHMMField, Invalid \"until\" field value is not a multiple of the minutes for each timestep: 22:30\n   **   ~~~   ** Other errors may result. Occurred in Day Schedule=OFFICE BLDG_EQUIP_ENDUSEDATA DEFAULT 1\n   ** Warning ** ProcessScheduleInput: DecodeHHMMField, Invalid \"until\" field value is not a multiple of the minutes for each timestep: 22:45\n   **   ~~~   ** Other errors may result. Occurred in Day Schedule=OFFICE BLDG_EQUIP_ENDUSEDATA DEFAULT 1\n   ** Warning ** ProcessScheduleInput: DecodeHHMMField, Invalid \"until\" field value is not a multiple of the minutes for each timestep: 23:15\n   **   ~~~   ** Other errors may result. Occurred in Day Schedule=OFFICE BLDG_EQUIP_ENDUSEDATA DEFAULT 1\n   ** Warning ** ProcessScheduleInput: DecodeHHMMField, Invalid \"until\" field value is not a multiple of the minutes for each timestep: 23:30\n   **   ~~~   ** Other errors may result. Occurred in Day Schedule=OFFICE BLDG_EQUIP_ENDUSEDATA DEFAULT 1\n   ** Warning ** ProcessScheduleInput: DecodeHHMMField, Invalid \"until\" field value is not a multiple of the minutes for each timestep: 23:45\n   **   ~~~   ** Other errors may result. Occurred in Day Schedule=OFFICE BLDG_EQUIP_ENDUSEDATA DEFAULT 1\n   ** Warning ** ProcessScheduleInput: DecodeHHMMField, Invalid \"until\" field value is not a multiple of the minutes for each timestep: 05:45\n   **   ~~~   ** Other errors may result. Occurred in Day Schedule=9 ZONE PVAV WITH PFP BOXES AND REHEAT OCC SCH DEFAULT\n   ** Warning ** ProcessScheduleInput: DecodeHHMMField, Invalid \"until\" field value is not a multiple of the minutes for each timestep: 16:15\n   **   ~~~   ** Other errors may result. Occurred in Day Schedule=9 ZONE PVAV WITH PFP BOXES AND REHEAT OCC SCH DEFAULT\n   ** Warning ** ProcessScheduleInput: DecodeHHMMField, Invalid \"until\" field value is not a multiple of the minutes for each timestep: 06:45\n   **   ~~~   ** Other errors may result. Occurred in Day Schedule=9 ZONE PVAV WITH PFP BOXES AND REHEAT OCC SCH SATURDAY\n   ** Warning ** ProcessScheduleInput: DecodeHHMMField, Invalid \"until\" field value is not a multiple of the minutes for each timestep: 14:52\n   **   ~~~   ** Other errors may result. Occurred in Day Schedule=9 ZONE PVAV WITH PFP BOXES AND REHEAT OCC SCH SATURDAY\n   ** Warning ** ProcessScheduleInput: DecodeHHMMField, Invalid \"until\" field value is not a multiple of the minutes for each timestep: 05:45\n   **   ~~~   ** Other errors may result. Occurred in Day Schedule=9 ZONE PVAV WITH PFP BOXES AND REHEAT OCC SCH DEFAULT 2\n   ** Warning ** ProcessScheduleInput: DecodeHHMMField, Invalid \"until\" field value is not a multiple of the minutes for each timestep: 16:15\n   **   ~~~   ** Other errors may result. Occurred in Day Schedule=9 ZONE PVAV WITH PFP BOXES AND REHEAT OCC SCH DEFAULT 2\n   ** Warning ** ProcessScheduleInput: DecodeHHMMField, Invalid \"until\" field value is not a multiple of the minutes for each timestep: 06:45\n   **   ~~~   ** Other errors may result. Occurred in Day Schedule=9 ZONE PVAV WITH PFP BOXES AND REHEAT OCC SCH SATURDAY 2\n   ** Warning ** ProcessScheduleInput: DecodeHHMMField, Invalid \"until\" field value is not a multiple of the minutes for each timestep: 14:52\n   **   ~~~   ** Other errors may result. Occurred in Day Schedule=9 ZONE PVAV WITH PFP BOXES AND REHEAT OCC SCH SATURDAY 2\n   ** Warning ** ProcessScheduleInput: DecodeHHMMField, Invalid \"until\" field value is not a multiple of the minutes for each timestep: 05:45\n   **   ~~~   ** Other errors may result. Occurred in Day Schedule=9 ZONE PVAV WITH PFP BOXES AND REHEAT 1 OCC SCH DEFAULT\n   ** Warning ** ProcessScheduleInput: DecodeHHMMField, Invalid \"until\" field value is not a multiple of the minutes for each timestep: 16:15\n   **   ~~~   ** Other errors may result. Occurred in Day Schedule=9 ZONE PVAV WITH PFP BOXES AND REHEAT 1 OCC SCH DEFAULT\n   ** Warning ** ProcessScheduleInput: DecodeHHMMField, Invalid \"until\" field value is not a multiple of the minutes for each timestep: 06:45\n   **   ~~~   ** Other errors may result. Occurred in Day Schedule=9 ZONE PVAV WITH PFP BOXES AND REHEAT 1 OCC SCH SATURDAY\n   ** Warning ** ProcessScheduleInput: DecodeHHMMField, Invalid \"until\" field value is not a multiple of the minutes for each timestep: 14:52\n   **   ~~~   ** Other errors may result. Occurred in Day Schedule=9 ZONE PVAV WITH PFP BOXES AND REHEAT 1 OCC SCH SATURDAY\n   ** Warning ** ProcessScheduleInput: DecodeHHMMField, Invalid \"until\" field value is not a multiple of the minutes for each timestep: 05:45\n   **   ~~~   ** Other errors may result. Occurred in Day Schedule=9 ZONE PVAV WITH PFP BOXES AND REHEAT 1 OCC SCH DEFAULT 2\n   ** Warning ** ProcessScheduleInput: DecodeHHMMField, Invalid \"until\" field value is not a multiple of the minutes for each timestep: 16:15\n   **   ~~~   ** Other errors may result. Occurred in Day Schedule=9 ZONE PVAV WITH PFP BOXES AND REHEAT 1 OCC SCH DEFAULT 2\n   ** Warning ** ProcessScheduleInput: DecodeHHMMField, Invalid \"until\" field value is not a multiple of the minutes for each timestep: 06:45\n   **   ~~~   ** Other errors may result. Occurred in Day Schedule=9 ZONE PVAV WITH PFP BOXES AND REHEAT 1 OCC SCH SATURDAY 2\n   ** Warning ** ProcessScheduleInput: DecodeHHMMField, Invalid \"until\" field value is not a multiple of the minutes for each timestep: 14:52\n   **   ~~~   ** Other errors may result. Occurred in Day Schedule=9 ZONE PVAV WITH PFP BOXES AND REHEAT 1 OCC SCH SATURDAY 2\n   ** Warning ** ProcessScheduleInput: DecodeHHMMField, Invalid \"until\" field value is not a multiple of the minutes for each timestep: 05:45\n   **   ~~~   ** Other errors may result. Occurred in Day Schedule=9 ZONE PVAV WITH PFP BOXES AND REHEAT 2 OCC SCH DEFAULT\n   ** Warning ** ProcessScheduleInput: DecodeHHMMField, Invalid \"until\" field value is not a multiple of the minutes for each timestep: 16:15\n   **   ~~~   ** Other errors may result. Occurred in Day Schedule=9 ZONE PVAV WITH PFP BOXES AND REHEAT 2 OCC SCH DEFAULT\n   ** Warning ** ProcessScheduleInput: DecodeHHMMField, Invalid \"until\" field value is not a multiple of the minutes for each timestep: 06:45\n   **   ~~~   ** Other errors may result. Occurred in Day Schedule=9 ZONE PVAV WITH PFP BOXES AND REHEAT 2 OCC SCH SATURDAY\n   ** Warning ** ProcessScheduleInput: DecodeHHMMField, Invalid \"until\" field value is not a multiple of the minutes for each timestep: 14:52\n   **   ~~~   ** Other errors may result. Occurred in Day Schedule=9 ZONE PVAV WITH PFP BOXES AND REHEAT 2 OCC SCH SATURDAY\n   ** Warning ** ProcessScheduleInput: DecodeHHMMField, Invalid \"until\" field value is not a multiple of the minutes for each timestep: 05:45\n   **   ~~~   ** Other errors may result. Occurred in Day Schedule=9 ZONE PVAV WITH PFP BOXES AND REHEAT 2 OCC SCH DEFAULT 2\n   ** Warning ** ProcessScheduleInput: DecodeHHMMField, Invalid \"until\" field value is not a multiple of the minutes for each timestep: 16:15\n   **   ~~~   ** Other errors may result. Occurred in Day Schedule=9 ZONE PVAV WITH PFP BOXES AND REHEAT 2 OCC SCH DEFAULT 2\n   ** Warning ** ProcessScheduleInput: DecodeHHMMField, Invalid \"until\" field value is not a multiple of the minutes for each timestep: 06:45\n   **   ~~~   ** Other errors may result. Occurred in Day Schedule=9 ZONE PVAV WITH PFP BOXES AND REHEAT 2 OCC SCH SATURDAY 2\n   ** Warning ** ProcessScheduleInput: DecodeHHMMField, Invalid \"until\" field value is not a multiple of the minutes for each timestep: 14:52\n   **   ~~~   ** Other errors may result. Occurred in Day Schedule=9 ZONE PVAV WITH PFP BOXES AND REHEAT 2 OCC SCH SATURDAY 2\n   ** Warning ** ProcessScheduleInput: DecodeHHMMField, Invalid \"until\" field value is not a multiple of the minutes for each timestep: 05:45\n   **   ~~~   ** Other errors may result. Occurred in Day Schedule=9 ZONE PVAV WITH PFP BOXES AND REHEAT 3 OCC SCH DEFAULT\n   ** Warning ** ProcessScheduleInput: DecodeHHMMField, Invalid \"until\" field value is not a multiple of the minutes for each timestep: 16:15\n   **   ~~~   ** Other errors may result. Occurred in Day Schedule=9 ZONE PVAV WITH PFP BOXES AND REHEAT 3 OCC SCH DEFAULT\n   ** Warning ** ProcessScheduleInput: DecodeHHMMField, Invalid \"until\" field value is not a multiple of the minutes for each timestep: 06:45\n   **   ~~~   ** Other errors may result. Occurred in Day Schedule=9 ZONE PVAV WITH PFP BOXES AND REHEAT 3 OCC SCH SATURDAY\n   ** Warning ** ProcessScheduleInput: DecodeHHMMField, Invalid \"until\" field value is not a multiple of the minutes for each timestep: 14:52\n   **   ~~~   ** Other errors may result. Occurred in Day Schedule=9 ZONE PVAV WITH PFP BOXES AND REHEAT 3 OCC SCH SATURDAY\n   ** Warning ** ProcessScheduleInput: DecodeHHMMField, Invalid \"until\" field value is not a multiple of the minutes for each timestep: 05:45\n   **   ~~~   ** Other errors may result. Occurred in Day Schedule=9 ZONE PVAV WITH PFP BOXES AND REHEAT 3 OCC SCH DEFAULT 2\n   ** Warning ** ProcessScheduleInput: DecodeHHMMField, Invalid \"until\" field value is not a multiple of the minutes for each timestep: 16:15\n   **   ~~~   ** Other errors may result. Occurred in Day Schedule=9 ZONE PVAV WITH PFP BOXES AND REHEAT 3 OCC SCH DEFAULT 2\n   ** Warning ** ProcessScheduleInput: DecodeHHMMField, Invalid \"until\" field value is not a multiple of the minutes for each timestep: 06:45\n   **   ~~~   ** Other errors may result. Occurred in Day Schedule=9 ZONE PVAV WITH PFP BOXES AND REHEAT 3 OCC SCH SATURDAY 2\n   ** Warning ** ProcessScheduleInput: DecodeHHMMField, Invalid \"until\" field value is not a multiple of the minutes for each timestep: 14:52\n   **   ~~~   ** Other errors may result. Occurred in Day Schedule=9 ZONE PVAV WITH PFP BOXES AND REHEAT 3 OCC SCH SATURDAY 2\n   ** Warning ** ProcessScheduleInput: DecodeHHMMField, Invalid \"until\" field value is not a multiple of the minutes for each timestep: 05:45\n   **   ~~~   ** Other errors may result. Occurred in Day Schedule=9 ZONE PVAV WITH PFP BOXES AND REHEAT 4 OCC SCH DEFAULT\n   ** Warning ** ProcessScheduleInput: DecodeHHMMField, Invalid \"until\" field value is not a multiple of the minutes for each timestep: 16:15\n   **   ~~~   ** Other errors may result. Occurred in Day Schedule=9 ZONE PVAV WITH PFP BOXES AND REHEAT 4 OCC SCH DEFAULT\n   ** Warning ** ProcessScheduleInput: DecodeHHMMField, Invalid \"until\" field value is not a multiple of the minutes for each timestep: 06:45\n   **   ~~~   ** Other errors may result. Occurred in Day Schedule=9 ZONE PVAV WITH PFP BOXES AND REHEAT 4 OCC SCH SATURDAY\n   ** Warning ** ProcessScheduleInput: DecodeHHMMField, Invalid \"until\" field value is not a multiple of the minutes for each timestep: 14:52\n   **   ~~~   ** Other errors may result. Occurred in Day Schedule=9 ZONE PVAV WITH PFP BOXES AND REHEAT 4 OCC SCH SATURDAY\n   ** Warning ** ProcessScheduleInput: DecodeHHMMField, Invalid \"until\" field value is not a multiple of the minutes for each timestep: 05:45\n   **   ~~~   ** Other errors may result. Occurred in Day Schedule=9 ZONE PVAV WITH PFP BOXES AND REHEAT 4 OCC SCH DEFAULT 2\n   ** Warning ** ProcessScheduleInput: DecodeHHMMField, Invalid \"until\" field value is not a multiple of the minutes for each timestep: 16:15\n   **   ~~~   ** Other errors may result. Occurred in Day Schedule=9 ZONE PVAV WITH PFP BOXES AND REHEAT 4 OCC SCH DEFAULT 2\n   ** Warning ** ProcessScheduleInput: DecodeHHMMField, Invalid \"until\" field value is not a multiple of the minutes for each timestep: 06:45\n   **   ~~~   ** Other errors may result. Occurred in Day Schedule=9 ZONE PVAV WITH PFP BOXES AND REHEAT 4 OCC SCH SATURDAY 2\n   ** Warning ** ProcessScheduleInput: DecodeHHMMField, Invalid \"until\" field value is not a multiple of the minutes for each timestep: 14:52\n   **   ~~~   ** Other errors may result. Occurred in Day Schedule=9 ZONE PVAV WITH PFP BOXES AND REHEAT 4 OCC SCH SATURDAY 2\n   ** Warning ** ProcessScheduleInput: DecodeHHMMField, Invalid \"until\" field value is not a multiple of the minutes for each timestep: 05:45\n   **   ~~~   ** Other errors may result. Occurred in Day Schedule=9 ZONE PVAV WITH PFP BOXES AND REHEAT 5 OCC SCH DEFAULT\n   ** Warning ** ProcessScheduleInput: DecodeHHMMField, Invalid \"until\" field value is not a multiple of the minutes for each timestep: 16:15\n   **   ~~~   ** Other errors may result. Occurred in Day Schedule=9 ZONE PVAV WITH PFP BOXES AND REHEAT 5 OCC SCH DEFAULT\n   ** Warning ** ProcessScheduleInput: DecodeHHMMField, Invalid \"until\" field value is not a multiple of the minutes for each timestep: 06:45\n   **   ~~~   ** Other errors may result. Occurred in Day Schedule=9 ZONE PVAV WITH PFP BOXES AND REHEAT 5 OCC SCH SATURDAY\n   ** Warning ** ProcessScheduleInput: DecodeHHMMField, Invalid \"until\" field value is not a multiple of the minutes for each timestep: 14:52\n   **   ~~~   ** Other errors may result. Occurred in Day Schedule=9 ZONE PVAV WITH PFP BOXES AND REHEAT 5 OCC SCH SATURDAY\n   ** Warning ** ProcessScheduleInput: DecodeHHMMField, Invalid \"until\" field value is not a multiple of the minutes for each timestep: 05:45\n   **   ~~~   ** Other errors may result. Occurred in Day Schedule=9 ZONE PVAV WITH PFP BOXES AND REHEAT 5 OCC SCH DEFAULT 2\n   ** Warning ** ProcessScheduleInput: DecodeHHMMField, Invalid \"until\" field value is not a multiple of the minutes for each timestep: 16:15\n   **   ~~~   ** Other errors may result. Occurred in Day Schedule=9 ZONE PVAV WITH PFP BOXES AND REHEAT 5 OCC SCH DEFAULT 2\n   ** Warning ** ProcessScheduleInput: DecodeHHMMField, Invalid \"until\" field value is not a multiple of the minutes for each timestep: 06:45\n   **   ~~~   ** Other errors may result. Occurred in Day Schedule=9 ZONE PVAV WITH PFP BOXES AND REHEAT 5 OCC SCH SATURDAY 2\n   ** Warning ** ProcessScheduleInput: DecodeHHMMField, Invalid \"until\" field value is not a multiple of the minutes for each timestep: 14:52\n   **   ~~~   ** Other errors may result. Occurred in Day Schedule=9 ZONE PVAV WITH PFP BOXES AND REHEAT 5 OCC SCH SATURDAY 2\n   ** Warning ** ProcessScheduleInput: DecodeHHMMField, Invalid \"until\" field value is not a multiple of the minutes for each timestep: 05:45\n   **   ~~~   ** Other errors may result. Occurred in Day Schedule=9 ZONE PVAV WITH PFP BOXES AND REHEAT 6 OCC SCH DEFAULT\n   ** Warning ** ProcessScheduleInput: DecodeHHMMField, Invalid \"until\" field value is not a multiple of the minutes for each timestep: 16:15\n   **   ~~~   ** Other errors may result. Occurred in Day Schedule=9 ZONE PVAV WITH PFP BOXES AND REHEAT 6 OCC SCH DEFAULT\n   ** Warning ** ProcessScheduleInput: DecodeHHMMField, Invalid \"until\" field value is not a multiple of the minutes for each timestep: 06:45\n   **   ~~~   ** Other errors may result. Occurred in Day Schedule=9 ZONE PVAV WITH PFP BOXES AND REHEAT 6 OCC SCH SATURDAY\n   ** Warning ** ProcessScheduleInput: DecodeHHMMField, Invalid \"until\" field value is not a multiple of the minutes for each timestep: 14:52\n   **   ~~~   ** Other errors may result. Occurred in Day Schedule=9 ZONE PVAV WITH PFP BOXES AND REHEAT 6 OCC SCH SATURDAY\n   ** Warning ** ProcessScheduleInput: DecodeHHMMField, Invalid \"until\" field value is not a multiple of the minutes for each timestep: 05:45\n   **   ~~~   ** Other errors may result. Occurred in Day Schedule=9 ZONE PVAV WITH PFP BOXES AND REHEAT 6 OCC SCH DEFAULT 2\n   ** Warning ** ProcessScheduleInput: DecodeHHMMField, Invalid \"until\" field value is not a multiple of the minutes for each timestep: 16:15\n   **   ~~~   ** Other errors may result. Occurred in Day Schedule=9 ZONE PVAV WITH PFP BOXES AND REHEAT 6 OCC SCH DEFAULT 2\n   ** Warning ** ProcessScheduleInput: DecodeHHMMField, Invalid \"until\" field value is not a multiple of the minutes for each timestep: 06:45\n   **   ~~~   ** Other errors may result. Occurred in Day Schedule=9 ZONE PVAV WITH PFP BOXES AND REHEAT 6 OCC SCH SATURDAY 2\n   ** Warning ** ProcessScheduleInput: DecodeHHMMField, Invalid \"until\" field value is not a multiple of the minutes for each timestep: 14:52\n   **   ~~~   ** Other errors may result. Occurred in Day Schedule=9 ZONE PVAV WITH PFP BOXES AND REHEAT 6 OCC SCH SATURDAY 2\n   ** Warning ** ProcessScheduleInput: DecodeHHMMField, Invalid \"until\" field value is not a multiple of the minutes for each timestep: 05:45\n   **   ~~~   ** Other errors may result. Occurred in Day Schedule=9 ZONE PVAV WITH PFP BOXES AND REHEAT 7 OCC SCH DEFAULT\n   ** Warning ** ProcessScheduleInput: DecodeHHMMField, Invalid \"until\" field value is not a multiple of the minutes for each timestep: 16:15\n   **   ~~~   ** Other errors may result. Occurred in Day Schedule=9 ZONE PVAV WITH PFP BOXES AND REHEAT 7 OCC SCH DEFAULT\n   ** Warning ** ProcessScheduleInput: DecodeHHMMField, Invalid \"until\" field value is not a multiple of the minutes for each timestep: 06:45\n   **   ~~~   ** Other errors may result. Occurred in Day Schedule=9 ZONE PVAV WITH PFP BOXES AND REHEAT 7 OCC SCH SATURDAY\n   ** Warning ** ProcessScheduleInput: DecodeHHMMField, Invalid \"until\" field value is not a multiple of the minutes for each timestep: 14:52\n   **   ~~~   ** Other errors may result. Occurred in Day Schedule=9 ZONE PVAV WITH PFP BOXES AND REHEAT 7 OCC SCH SATURDAY\n   ** Warning ** ProcessScheduleInput: DecodeHHMMField, Invalid \"until\" field value is not a multiple of the minutes for each timestep: 05:45\n   **   ~~~   ** Other errors may result. Occurred in Day Schedule=9 ZONE PVAV WITH PFP BOXES AND REHEAT 7 OCC SCH DEFAULT 2\n   ** Warning ** ProcessScheduleInput: DecodeHHMMField, Invalid \"until\" field value is not a multiple of the minutes for each timestep: 16:15\n   **   ~~~   ** Other errors may result. Occurred in Day Schedule=9 ZONE PVAV WITH PFP BOXES AND REHEAT 7 OCC SCH DEFAULT 2\n   ** Warning ** ProcessScheduleInput: DecodeHHMMField, Invalid \"until\" field value is not a multiple of the minutes for each timestep: 06:45\n   **   ~~~   ** Other errors may result. Occurred in Day Schedule=9 ZONE PVAV WITH PFP BOXES AND REHEAT 7 OCC SCH SATURDAY 2\n   ** Warning ** ProcessScheduleInput: DecodeHHMMField, Invalid \"until\" field value is not a multiple of the minutes for each timestep: 14:52\n   **   ~~~   ** Other errors may result. Occurred in Day Schedule=9 ZONE PVAV WITH PFP BOXES AND REHEAT 7 OCC SCH SATURDAY 2\n   ** Warning ** ProcessScheduleInput: DecodeHHMMField, Invalid \"until\" field value is not a multiple of the minutes for each timestep: 05:45\n   **   ~~~   ** Other errors may result. Occurred in Day Schedule=9 ZONE PVAV WITH PFP BOXES AND REHEAT 8 OCC SCH DEFAULT\n   ** Warning ** ProcessScheduleInput: DecodeHHMMField, Invalid \"until\" field value is not a multiple of the minutes for each timestep: 16:15\n   **   ~~~   ** Other errors may result. Occurred in Day Schedule=9 ZONE PVAV WITH PFP BOXES AND REHEAT 8 OCC SCH DEFAULT\n   ** Warning ** ProcessScheduleInput: DecodeHHMMField, Invalid \"until\" field value is not a multiple of the minutes for each timestep: 06:45\n   **   ~~~   ** Other errors may result. Occurred in Day Schedule=9 ZONE PVAV WITH PFP BOXES AND REHEAT 8 OCC SCH SATURDAY\n   ** Warning ** ProcessScheduleInput: DecodeHHMMField, Invalid \"until\" field value is not a multiple of the minutes for each timestep: 14:52\n   **   ~~~   ** Other errors may result. Occurred in Day Schedule=9 ZONE PVAV WITH PFP BOXES AND REHEAT 8 OCC SCH SATURDAY\n   ** Warning ** ProcessScheduleInput: DecodeHHMMField, Invalid \"until\" field value is not a multiple of the minutes for each timestep: 05:45\n   **   ~~~   ** Other errors may result. Occurred in Day Schedule=9 ZONE PVAV WITH PFP BOXES AND REHEAT 8 OCC SCH DEFAULT 2\n   ** Warning ** ProcessScheduleInput: DecodeHHMMField, Invalid \"until\" field value is not a multiple of the minutes for each timestep: 16:15\n   **   ~~~   ** Other errors may result. Occurred in Day Schedule=9 ZONE PVAV WITH PFP BOXES AND REHEAT 8 OCC SCH DEFAULT 2\n   ** Warning ** ProcessScheduleInput: DecodeHHMMField, Invalid \"until\" field value is not a multiple of the minutes for each timestep: 06:45\n   **   ~~~   ** Other errors may result. Occurred in Day Schedule=9 ZONE PVAV WITH PFP BOXES AND REHEAT 8 OCC SCH SATURDAY 2\n   ** Warning ** ProcessScheduleInput: DecodeHHMMField, Invalid \"until\" field value is not a multiple of the minutes for each timestep: 14:52\n   **   ~~~   ** Other errors may result. Occurred in Day Schedule=9 ZONE PVAV WITH PFP BOXES AND REHEAT 8 OCC SCH SATURDAY 2\n   ** Warning ** ProcessScheduleInput: DecodeHHMMField, Invalid \"until\" field value is not a multiple of the minutes for each timestep: 05:45\n   **   ~~~   ** Other errors may result. Occurred in Day Schedule=9 ZONE PVAV WITH PFP BOXES AND REHEAT 9 OCC SCH DEFAULT\n   ** Warning ** ProcessScheduleInput: DecodeHHMMField, Invalid \"until\" field value is not a multiple of the minutes for each timestep: 16:15\n   **   ~~~   ** Other errors may result. Occurred in Day Schedule=9 ZONE PVAV WITH PFP BOXES AND REHEAT 9 OCC SCH DEFAULT\n   ** Warning ** ProcessScheduleInput: DecodeHHMMField, Invalid \"until\" field value is not a multiple of the minutes for each timestep: 06:45\n   **   ~~~   ** Other errors may result. Occurred in Day Schedule=9 ZONE PVAV WITH PFP BOXES AND REHEAT 9 OCC SCH SATURDAY\n   ** Warning ** ProcessScheduleInput: DecodeHHMMField, Invalid \"until\" field value is not a multiple of the minutes for each timestep: 14:52\n   **   ~~~   ** Other errors may result. Occurred in Day Schedule=9 ZONE PVAV WITH PFP BOXES AND REHEAT 9 OCC SCH SATURDAY\n   ** Warning ** ProcessScheduleInput: DecodeHHMMField, Invalid \"until\" field value is not a multiple of the minutes for each timestep: 05:45\n   **   ~~~   ** Other errors may result. Occurred in Day Schedule=9 ZONE PVAV WITH PFP BOXES AND REHEAT 9 OCC SCH DEFAULT 2\n   ** Warning ** ProcessScheduleInput: DecodeHHMMField, Invalid \"until\" field value is not a multiple of the minutes for each timestep: 16:15\n   **   ~~~   ** Other errors may result. Occurred in Day Schedule=9 ZONE PVAV WITH PFP BOXES AND REHEAT 9 OCC SCH DEFAULT 2\n   ** Warning ** ProcessScheduleInput: DecodeHHMMField, Invalid \"until\" field value is not a multiple of the minutes for each timestep: 06:45\n   **   ~~~   ** Other errors may result. Occurred in Day Schedule=9 ZONE PVAV WITH PFP BOXES AND REHEAT 9 OCC SCH SATURDAY 2\n   ** Warning ** ProcessScheduleInput: DecodeHHMMField, Invalid \"until\" field value is not a multiple of the minutes for each timestep: 14:52\n   **   ~~~   ** Other errors may result. Occurred in Day Schedule=9 ZONE PVAV WITH PFP BOXES AND REHEAT 9 OCC SCH SATURDAY 2\n   ** Warning ** ProcessScheduleInput: DecodeHHMMField, Invalid \"until\" field value is not a multiple of the minutes for each timestep: 05:45\n   **   ~~~   ** Other errors may result. Occurred in Day Schedule=9 ZONE PVAV WITH PFP BOXES AND REHEAT 10 OCC SCH DEFAULT\n   ** Warning ** ProcessScheduleInput: DecodeHHMMField, Invalid \"until\" field value is not a multiple of the minutes for each timestep: 16:15\n   **   ~~~   ** Other errors may result. Occurred in Day Schedule=9 ZONE PVAV WITH PFP BOXES AND REHEAT 10 OCC SCH DEFAULT\n   ** Warning ** ProcessScheduleInput: DecodeHHMMField, Invalid \"until\" field value is not a multiple of the minutes for each timestep: 06:45\n   **   ~~~   ** Other errors may result. Occurred in Day Schedule=9 ZONE PVAV WITH PFP BOXES AND REHEAT 10 OCC SCH SATURDAY\n   ** Warning ** ProcessScheduleInput: DecodeHHMMField, Invalid \"until\" field value is not a multiple of the minutes for each timestep: 14:52\n   **   ~~~   ** Other errors may result. Occurred in Day Schedule=9 ZONE PVAV WITH PFP BOXES AND REHEAT 10 OCC SCH SATURDAY\n   ** Warning ** ProcessScheduleInput: DecodeHHMMField, Invalid \"until\" field value is not a multiple of the minutes for each timestep: 05:45\n   **   ~~~   ** Other errors may result. Occurred in Day Schedule=9 ZONE PVAV WITH PFP BOXES AND REHEAT 10 OCC SCH DEFAULT 2\n   ** Warning ** ProcessScheduleInput: DecodeHHMMField, Invalid \"until\" field value is not a multiple of the minutes for each timestep: 16:15\n   **   ~~~   ** Other errors may result. Occurred in Day Schedule=9 ZONE PVAV WITH PFP BOXES AND REHEAT 10 OCC SCH DEFAULT 2\n   ** Warning ** ProcessScheduleInput: DecodeHHMMField, Invalid \"until\" field value is not a multiple of the minutes for each timestep: 06:45\n   **   ~~~   ** Other errors may result. Occurred in Day Schedule=9 ZONE PVAV WITH PFP BOXES AND REHEAT 10 OCC SCH SATURDAY 2\n   ** Warning ** ProcessScheduleInput: DecodeHHMMField, Invalid \"until\" field value is not a multiple of the minutes for each timestep: 14:52\n   **   ~~~   ** Other errors may result. Occurred in Day Schedule=9 ZONE PVAV WITH PFP BOXES AND REHEAT 10 OCC SCH SATURDAY 2\n   ** Warning ** ProcessScheduleInput: DecodeHHMMField, Invalid \"until\" field value is not a multiple of the minutes for each timestep: 05:45\n   **   ~~~   ** Other errors may result. Occurred in Day Schedule=9 ZONE PVAV WITH PFP BOXES AND REHEAT 11 OCC SCH DEFAULT\n   ** Warning ** ProcessScheduleInput: DecodeHHMMField, Invalid \"until\" field value is not a multiple of the minutes for each timestep: 16:15\n   **   ~~~   ** Other errors may result. Occurred in Day Schedule=9 ZONE PVAV WITH PFP BOXES AND REHEAT 11 OCC SCH DEFAULT\n   ** Warning ** ProcessScheduleInput: DecodeHHMMField, Invalid \"until\" field value is not a multiple of the minutes for each timestep: 06:45\n   **   ~~~   ** Other errors may result. Occurred in Day Schedule=9 ZONE PVAV WITH PFP BOXES AND REHEAT 11 OCC SCH SATURDAY\n   ** Warning ** ProcessScheduleInput: DecodeHHMMField, Invalid \"until\" field value is not a multiple of the minutes for each timestep: 14:52\n   **   ~~~   ** Other errors may result. Occurred in Day Schedule=9 ZONE PVAV WITH PFP BOXES AND REHEAT 11 OCC SCH SATURDAY\n   ** Warning ** ProcessScheduleInput: DecodeHHMMField, Invalid \"until\" field value is not a multiple of the minutes for each timestep: 05:45\n   **   ~~~   ** Other errors may result. Occurred in Day Schedule=9 ZONE PVAV WITH PFP BOXES AND REHEAT 11 OCC SCH DEFAULT 2\n   ** Warning ** ProcessScheduleInput: DecodeHHMMField, Invalid \"until\" field value is not a multiple of the minutes for each timestep: 16:15\n   **   ~~~   ** Other errors may result. Occurred in Day Schedule=9 ZONE PVAV WITH PFP BOXES AND REHEAT 11 OCC SCH DEFAULT 2\n   ** Warning ** ProcessScheduleInput: DecodeHHMMField, Invalid \"until\" field value is not a multiple of the minutes for each timestep: 06:45\n   **   ~~~   ** Other errors may result. Occurred in Day Schedule=9 ZONE PVAV WITH PFP BOXES AND REHEAT 11 OCC SCH SATURDAY 2\n   ** Warning ** ProcessScheduleInput: DecodeHHMMField, Invalid \"until\" field value is not a multiple of the minutes for each timestep: 14:52\n   **   ~~~   ** Other errors may result. Occurred in Day Schedule=9 ZONE PVAV WITH PFP BOXES AND REHEAT 11 OCC SCH SATURDAY 2\n   ** Warning ** ProcessScheduleInput: DecodeHHMMField, Invalid \"until\" field value is not a multiple of the minutes for each timestep: 05:45\n   **   ~~~   ** Other errors may result. Occurred in Day Schedule=9 ZONE PVAV WITH PFP BOXES AND REHEAT 12 OCC SCH DEFAULT\n   ** Warning ** ProcessScheduleInput: DecodeHHMMField, Invalid \"until\" field value is not a multiple of the minutes for each timestep: 16:15\n   **   ~~~   ** Other errors may result. Occurred in Day Schedule=9 ZONE PVAV WITH PFP BOXES AND REHEAT 12 OCC SCH DEFAULT\n   ** Warning ** ProcessScheduleInput: DecodeHHMMField, Invalid \"until\" field value is not a multiple of the minutes for each timestep: 06:45\n   **   ~~~   ** Other errors may result. Occurred in Day Schedule=9 ZONE PVAV WITH PFP BOXES AND REHEAT 12 OCC SCH SATURDAY\n   ** Warning ** ProcessScheduleInput: DecodeHHMMField, Invalid \"until\" field value is not a multiple of the minutes for each timestep: 14:52\n   **   ~~~   ** Other errors may result. Occurred in Day Schedule=9 ZONE PVAV WITH PFP BOXES AND REHEAT 12 OCC SCH SATURDAY\n   ** Warning ** ProcessScheduleInput: DecodeHHMMField, Invalid \"until\" field value is not a multiple of the minutes for each timestep: 05:45\n   **   ~~~   ** Other errors may result. Occurred in Day Schedule=9 ZONE PVAV WITH PFP BOXES AND REHEAT 12 OCC SCH DEFAULT 2\n   ** Warning ** ProcessScheduleInput: DecodeHHMMField, Invalid \"until\" field value is not a multiple of the minutes for each timestep: 16:15\n   **   ~~~   ** Other errors may result. Occurred in Day Schedule=9 ZONE PVAV WITH PFP BOXES AND REHEAT 12 OCC SCH DEFAULT 2\n   ** Warning ** ProcessScheduleInput: DecodeHHMMField, Invalid \"until\" field value is not a multiple of the minutes for each timestep: 06:45\n   **   ~~~   ** Other errors may result. Occurred in Day Schedule=9 ZONE PVAV WITH PFP BOXES AND REHEAT 12 OCC SCH SATURDAY 2\n   ** Warning ** ProcessScheduleInput: DecodeHHMMField, Invalid \"until\" field value is not a multiple of the minutes for each timestep: 14:52\n   **   ~~~   ** Other errors may result. Occurred in Day Schedule=9 ZONE PVAV WITH PFP BOXES AND REHEAT 12 OCC SCH SATURDAY 2\n   ** Warning ** ProcessScheduleInput: DecodeHHMMField, Invalid \"until\" field value is not a multiple of the minutes for each timestep: 05:45\n   **   ~~~   ** Other errors may result. Occurred in Day Schedule=9 ZONE PVAV WITH PFP BOXES AND REHEAT 13 OCC SCH DEFAULT\n   ** Warning ** ProcessScheduleInput: DecodeHHMMField, Invalid \"until\" field value is not a multiple of the minutes for each timestep: 16:15\n   **   ~~~   ** Other errors may result. Occurred in Day Schedule=9 ZONE PVAV WITH PFP BOXES AND REHEAT 13 OCC SCH DEFAULT\n   ** Warning ** ProcessScheduleInput: DecodeHHMMField, Invalid \"until\" field value is not a multiple of the minutes for each timestep: 06:45\n   **   ~~~   ** Other errors may result. Occurred in Day Schedule=9 ZONE PVAV WITH PFP BOXES AND REHEAT 13 OCC SCH SATURDAY\n   ** Warning ** ProcessScheduleInput: DecodeHHMMField, Invalid \"until\" field value is not a multiple of the minutes for each timestep: 14:52\n   **   ~~~   ** Other errors may result. Occurred in Day Schedule=9 ZONE PVAV WITH PFP BOXES AND REHEAT 13 OCC SCH SATURDAY\n   ** Warning ** ProcessScheduleInput: DecodeHHMMField, Invalid \"until\" field value is not a multiple of the minutes for each timestep: 05:45\n   **   ~~~   ** Other errors may result. Occurred in Day Schedule=9 ZONE PVAV WITH PFP BOXES AND REHEAT 13 OCC SCH DEFAULT 2\n   ** Warning ** ProcessScheduleInput: DecodeHHMMField, Invalid \"until\" field value is not a multiple of the minutes for each timestep: 16:15\n   **   ~~~   ** Other errors may result. Occurred in Day Schedule=9 ZONE PVAV WITH PFP BOXES AND REHEAT 13 OCC SCH DEFAULT 2\n   ** Warning ** ProcessScheduleInput: DecodeHHMMField, Invalid \"until\" field value is not a multiple of the minutes for each timestep: 06:45\n   **   ~~~   ** Other errors may result. Occurred in Day Schedule=9 ZONE PVAV WITH PFP BOXES AND REHEAT 13 OCC SCH SATURDAY 2\n   ** Warning ** ProcessScheduleInput: DecodeHHMMField, Invalid \"until\" field value is not a multiple of the minutes for each timestep: 14:52\n   **   ~~~   ** Other errors may result. Occurred in Day Schedule=9 ZONE PVAV WITH PFP BOXES AND REHEAT 13 OCC SCH SATURDAY 2\n   ** Warning ** ProcessScheduleInput: DecodeHHMMField, Invalid \"until\" field value is not a multiple of the minutes for each timestep: 05:45\n   **   ~~~   ** Other errors may result. Occurred in Day Schedule=9 ZONE PVAV WITH PFP BOXES AND REHEAT 14 OCC SCH DEFAULT\n   ** Warning ** ProcessScheduleInput: DecodeHHMMField, Invalid \"until\" field value is not a multiple of the minutes for each timestep: 16:15\n   **   ~~~   ** Other errors may result. Occurred in Day Schedule=9 ZONE PVAV WITH PFP BOXES AND REHEAT 14 OCC SCH DEFAULT\n   ** Warning ** ProcessScheduleInput: DecodeHHMMField, Invalid \"until\" field value is not a multiple of the minutes for each timestep: 06:45\n   **   ~~~   ** Other errors may result. Occurred in Day Schedule=9 ZONE PVAV WITH PFP BOXES AND REHEAT 14 OCC SCH SATURDAY\n   ** Warning ** ProcessScheduleInput: DecodeHHMMField, Invalid \"until\" field value is not a multiple of the minutes for each timestep: 14:52\n   **   ~~~   ** Other errors may result. Occurred in Day Schedule=9 ZONE PVAV WITH PFP BOXES AND REHEAT 14 OCC SCH SATURDAY\n   ** Warning ** ProcessScheduleInput: DecodeHHMMField, Invalid \"until\" field value is not a multiple of the minutes for each timestep: 05:45\n   **   ~~~   ** Other errors may result. Occurred in Day Schedule=9 ZONE PVAV WITH PFP BOXES AND REHEAT 14 OCC SCH DEFAULT 2\n   ** Warning ** ProcessScheduleInput: DecodeHHMMField, Invalid \"until\" field value is not a multiple of the minutes for each timestep: 16:15\n   **   ~~~   ** Other errors may result. Occurred in Day Schedule=9 ZONE PVAV WITH PFP BOXES AND REHEAT 14 OCC SCH DEFAULT 2\n   ** Warning ** ProcessScheduleInput: DecodeHHMMField, Invalid \"until\" field value is not a multiple of the minutes for each timestep: 06:45\n   **   ~~~   ** Other errors may result. Occurred in Day Schedule=9 ZONE PVAV WITH PFP BOXES AND REHEAT 14 OCC SCH SATURDAY 2\n   ** Warning ** ProcessScheduleInput: DecodeHHMMField, Invalid \"until\" field value is not a multiple of the minutes for each timestep: 14:52\n   **   ~~~   ** Other errors may result. Occurred in Day Schedule=9 ZONE PVAV WITH PFP BOXES AND REHEAT 14 OCC SCH SATURDAY 2\n   ** Warning ** ProcessScheduleInput: DecodeHHMMField, Invalid \"until\" field value is not a multiple of the minutes for each timestep: 05:45\n   **   ~~~   ** Other errors may result. Occurred in Day Schedule=9 ZONE PVAV WITH PFP BOXES AND REHEAT 15 OCC SCH DEFAULT\n   ** Warning ** ProcessScheduleInput: DecodeHHMMField, Invalid \"until\" field value is not a multiple of the minutes for each timestep: 16:15\n   **   ~~~   ** Other errors may result. Occurred in Day Schedule=9 ZONE PVAV WITH PFP BOXES AND REHEAT 15 OCC SCH DEFAULT\n   ** Warning ** ProcessScheduleInput: DecodeHHMMField, Invalid \"until\" field value is not a multiple of the minutes for each timestep: 06:45\n   **   ~~~   ** Other errors may result. Occurred in Day Schedule=9 ZONE PVAV WITH PFP BOXES AND REHEAT 15 OCC SCH SATURDAY\n   ** Warning ** ProcessScheduleInput: DecodeHHMMField, Invalid \"until\" field value is not a multiple of the minutes for each timestep: 14:52\n   **   ~~~   ** Other errors may result. Occurred in Day Schedule=9 ZONE PVAV WITH PFP BOXES AND REHEAT 15 OCC SCH SATURDAY\n   ** Warning ** ProcessScheduleInput: DecodeHHMMField, Invalid \"until\" field value is not a multiple of the minutes for each timestep: 05:45\n   **   ~~~   ** Other errors may result. Occurred in Day Schedule=9 ZONE PVAV WITH PFP BOXES AND REHEAT 15 OCC SCH DEFAULT 2\n   ** Warning ** ProcessScheduleInput: DecodeHHMMField, Invalid \"until\" field value is not a multiple of the minutes for each timestep: 16:15\n   **   ~~~   ** Other errors may result. Occurred in Day Schedule=9 ZONE PVAV WITH PFP BOXES AND REHEAT 15 OCC SCH DEFAULT 2\n   ** Warning ** ProcessScheduleInput: DecodeHHMMField, Invalid \"until\" field value is not a multiple of the minutes for each timestep: 06:45\n   **   ~~~   ** Other errors may result. Occurred in Day Schedule=9 ZONE PVAV WITH PFP BOXES AND REHEAT 15 OCC SCH SATURDAY 2\n   ** Warning ** ProcessScheduleInput: DecodeHHMMField, Invalid \"until\" field value is not a multiple of the minutes for each timestep: 14:52\n   **   ~~~   ** Other errors may result. Occurred in Day Schedule=9 ZONE PVAV WITH PFP BOXES AND REHEAT 15 OCC SCH SATURDAY 2\n   ** Warning ** ProcessScheduleInput: DecodeHHMMField, Invalid \"until\" field value is not a multiple of the minutes for each timestep: 05:45\n   **   ~~~   ** Other errors may result. Occurred in Day Schedule=9 ZONE PVAV WITH PFP BOXES AND REHEAT 16 OCC SCH DEFAULT\n   ** Warning ** ProcessScheduleInput: DecodeHHMMField, Invalid \"until\" field value is not a multiple of the minutes for each timestep: 16:15\n   **   ~~~   ** Other errors may result. Occurred in Day Schedule=9 ZONE PVAV WITH PFP BOXES AND REHEAT 16 OCC SCH DEFAULT\n   ** Warning ** ProcessScheduleInput: DecodeHHMMField, Invalid \"until\" field value is not a multiple of the minutes for each timestep: 06:45\n   **   ~~~   ** Other errors may result. Occurred in Day Schedule=9 ZONE PVAV WITH PFP BOXES AND REHEAT 16 OCC SCH SATURDAY\n   ** Warning ** ProcessScheduleInput: DecodeHHMMField, Invalid \"until\" field value is not a multiple of the minutes for each timestep: 14:52\n   **   ~~~   ** Other errors may result. Occurred in Day Schedule=9 ZONE PVAV WITH PFP BOXES AND REHEAT 16 OCC SCH SATURDAY\n   ** Warning ** ProcessScheduleInput: DecodeHHMMField, Invalid \"until\" field value is not a multiple of the minutes for each timestep: 05:45\n   **   ~~~   ** Other errors may result. Occurred in Day Schedule=9 ZONE PVAV WITH PFP BOXES AND REHEAT 16 OCC SCH DEFAULT 2\n   ** Warning ** ProcessScheduleInput: DecodeHHMMField, Invalid \"until\" field value is not a multiple of the minutes for each timestep: 16:15\n   **   ~~~   ** Other errors may result. Occurred in Day Schedule=9 ZONE PVAV WITH PFP BOXES AND REHEAT 16 OCC SCH DEFAULT 2\n   ** Warning ** ProcessScheduleInput: DecodeHHMMField, Invalid \"until\" field value is not a multiple of the minutes for each timestep: 06:45\n   **   ~~~   ** Other errors may result. Occurred in Day Schedule=9 ZONE PVAV WITH PFP BOXES AND REHEAT 16 OCC SCH SATURDAY 2\n   ** Warning ** ProcessScheduleInput: DecodeHHMMField, Invalid \"until\" field value is not a multiple of the minutes for each timestep: 14:52\n   **   ~~~   ** Other errors may result. Occurred in Day Schedule=9 ZONE PVAV WITH PFP BOXES AND REHEAT 16 OCC SCH SATURDAY 2\n   ** Warning ** ProcessScheduleInput: DecodeHHMMField, Invalid \"until\" field value is not a multiple of the minutes for each timestep: 05:45\n   **   ~~~   ** Other errors may result. Occurred in Day Schedule=9 ZONE PVAV WITH PFP BOXES AND REHEAT 17 OCC SCH DEFAULT\n   ** Warning ** ProcessScheduleInput: DecodeHHMMField, Invalid \"until\" field value is not a multiple of the minutes for each timestep: 16:15\n   **   ~~~   ** Other errors may result. Occurred in Day Schedule=9 ZONE PVAV WITH PFP BOXES AND REHEAT 17 OCC SCH DEFAULT\n   ** Warning ** ProcessScheduleInput: DecodeHHMMField, Invalid \"until\" field value is not a multiple of the minutes for each timestep: 06:45\n   **   ~~~   ** Other errors may result. Occurred in Day Schedule=9 ZONE PVAV WITH PFP BOXES AND REHEAT 17 OCC SCH SATURDAY\n   ** Warning ** ProcessScheduleInput: DecodeHHMMField, Invalid \"until\" field value is not a multiple of the minutes for each timestep: 14:52\n   **   ~~~   ** Other errors may result. Occurred in Day Schedule=9 ZONE PVAV WITH PFP BOXES AND REHEAT 17 OCC SCH SATURDAY\n   ** Warning ** ProcessScheduleInput: DecodeHHMMField, Invalid \"until\" field value is not a multiple of the minutes for each timestep: 05:45\n   **   ~~~   ** Other errors may result. Occurred in Day Schedule=9 ZONE PVAV WITH PFP BOXES AND REHEAT 17 OCC SCH DEFAULT 2\n   ** Warning ** ProcessScheduleInput: DecodeHHMMField, Invalid \"until\" field value is not a multiple of the minutes for each timestep: 16:15\n   **   ~~~   ** Other errors may result. Occurred in Day Schedule=9 ZONE PVAV WITH PFP BOXES AND REHEAT 17 OCC SCH DEFAULT 2\n   ** Warning ** ProcessScheduleInput: DecodeHHMMField, Invalid \"until\" field value is not a multiple of the minutes for each timestep: 06:45\n   **   ~~~   ** Other errors may result. Occurred in Day Schedule=9 ZONE PVAV WITH PFP BOXES AND REHEAT 17 OCC SCH SATURDAY 2\n   ** Warning ** ProcessScheduleInput: DecodeHHMMField, Invalid \"until\" field value is not a multiple of the minutes for each timestep: 14:52\n   **   ~~~   ** Other errors may result. Occurred in Day Schedule=9 ZONE PVAV WITH PFP BOXES AND REHEAT 17 OCC SCH SATURDAY 2\n   ** Warning ** ProcessScheduleInput: DecodeHHMMField, Invalid \"until\" field value is not a multiple of the minutes for each timestep: 05:45\n   **   ~~~   ** Other errors may result. Occurred in Day Schedule=9 ZONE PVAV WITH PFP BOXES AND REHEAT 18 OCC SCH DEFAULT\n   ** Warning ** ProcessScheduleInput: DecodeHHMMField, Invalid \"until\" field value is not a multiple of the minutes for each timestep: 16:15\n   **   ~~~   ** Other errors may result. Occurred in Day Schedule=9 ZONE PVAV WITH PFP BOXES AND REHEAT 18 OCC SCH DEFAULT\n   ** Warning ** ProcessScheduleInput: DecodeHHMMField, Invalid \"until\" field value is not a multiple of the minutes for each timestep: 06:45\n   **   ~~~   ** Other errors may result. Occurred in Day Schedule=9 ZONE PVAV WITH PFP BOXES AND REHEAT 18 OCC SCH SATURDAY\n   ** Warning ** ProcessScheduleInput: DecodeHHMMField, Invalid \"until\" field value is not a multiple of the minutes for each timestep: 14:52\n   **   ~~~   ** Other errors may result. Occurred in Day Schedule=9 ZONE PVAV WITH PFP BOXES AND REHEAT 18 OCC SCH SATURDAY\n   ** Warning ** ProcessScheduleInput: DecodeHHMMField, Invalid \"until\" field value is not a multiple of the 
[...]
               "eGRID 2020 emissions factor for 'FRCC' is 382.0 CO2e kg per MWh",
               "Annual eGRID 2020 state emissions CO2e kg: 197285.0",
               "Annual eGRID 2020 subregion Heating emissions CO2e kg: 8416.11",
               "Annual eGRID 2020 subregion InteriorLights emissions CO2e kg: 19843.77",
               "Annual eGRID 2020 subregion ExteriorLights emissions CO2e kg: 4826.25",
               "Annual eGRID 2020 subregion InteriorEquipment emissions CO2e kg: 58438.81",
               "Annual eGRID 2020 subregion Refrigeration emissions CO2e kg: 0.0",
               "Annual eGRID 2020 subregion WaterSystems emissions CO2e kg: 1328.49",
               "Annual eGRID 2020 subregion TotalHVAC emissions CO2e kg: 112847.68",
               "Annual eGRID 2020 subregion CoolingHVAC emissions CO2e kg: 72272.96",
               "eGRID 2021 emissions factor for 'FRCC' is 379.88 CO2e kg per MWh",
               "Annual eGRID 2021 state emissions CO2e kg: 196187.5",
               "Annual eGRID 2021 subregion Heating emissions CO2e kg: 8369.29",
               "Annual eGRID 2021 subregion InteriorLights emissions CO2e kg: 19733.38",
               "Annual eGRID 2021 subregion ExteriorLights emissions CO2e kg: 4799.4",
               "Annual eGRID 2021 subregion InteriorEquipment emissions CO2e kg: 58113.71",
               "Annual eGRID 2021 subregion Refrigeration emissions CO2e kg: 0.0",
               "Annual eGRID 2021 subregion WaterSystems emissions CO2e kg: 1321.1",
               "Annual eGRID 2021 subregion TotalHVAC emissions CO2e kg: 112219.91",
               "Annual eGRID 2021 subregion CoolingHVAC emissions CO2e kg: 71870.91"
            ],
            "step_result" : "Fail",
            "step_values" : 
            [
               {
                  "name" : "grid_region",
                  "value" : "Lookup from model"
               },
               {
                  "name" : "grid_state",
                  "value" : "Lookup from model"
               },
               {
                  "name" : "emissions_scenario",
                  "value" : "All"
               },
               {
                  "name" : "annual_natural_gas_ghg_emissions_kg",
                  "value" : 0
               },
               {
                  "name" : "annual_fuel_oil_ghg_emissions_kg",
                  "value" : 0
               },
               {
                  "name" : "annual_propane_ghg_emissions_kg",
                  "value" : 0
               },
               {
                  "name" : "annual_heating_natural_gas_ghg_emissions_kg",
                  "value" : 0
               },
               {
                  "name" : "annual_heating_propane_ghg_emissions_kg",
                  "value" : 0
               },
               {
                  "name" : "annual_heating_fuel_oil_ghg_emissions_kg",
                  "value" : 0
               },
               {
                  "name" : "annual_interior_equipment_natural_gas_ghg_emissions_kg",
                  "value" : 0
               },
               {
                  "name" : "annual_interior_equipment_propane_ghg_emissions_kg",
                  "value" : 0
               },
               {
                  "name" : "annual_interior_equipment_fuel_oil_ghg_emissions_kg",
                  "value" : 0
               },
               {
                  "name" : "annual_water_systems_natural_gas_ghg_emissions_kg",
                  "value" : 0
               },
               {
                  "name" : "annual_water_systems_propane_ghg_emissions_kg",
                  "value" : 0
               },
               {
                  "name" : "annual_water_systems_fuel_oil_ghg_emissions_kg",
                  "value" : 0
               },
               {
                  "name" : "annual_total_hvac_natural_gas_ghg_emissions_kg",
                  "value" : 0
               },
               {
                  "name" : "annual_total_hvac_propane_ghg_emissions_kg",
                  "value" : 0
               },
               {
                  "name" : "annual_total_hvac_fuel_oil_ghg_emissions_kg",
                  "value" : 0
               },
               {
                  "name" : "annual_electricity_ghg_emissions_egrid_2018_subregion_kg",
                  "value" : 219299.65373480029
               },
               {
                  "name" : "annual_heating_electricity_ghg_emissions_egrid_2018_subregion_kg",
                  "value" : 9355.2455679872619
               },
               {
                  "name" : "annual_interior_lights_electricity_ghg_emissions_egrid_2018_subregion_kg",
                  "value" : 22058.102558439045
               },
               {
                  "name" : "annual_exterior_lights_electricity_ghg_emissions_egrid_2018_subregion_kg",
                  "value" : 5364.7966400035084
               },
               {
                  "name" : "annual_interior_equipment_electricity_ghg_emissions_egrid_2018_subregion_kg",
                  "value" : 64959.8803837374
               },
               {
                  "name" : "annual_refrigeration_electricity_ghg_emissions_egrid_2018_subregion_kg",
                  "value" : 0.0
               },
               {
                  "name" : "annual_water_systems_electricity_ghg_emissions_egrid_2018_subregion_kg",
                  "value" : 1476.7370963048154
               },
               {
                  "name" : "annual_total_hvac_electricity_ghg_emissions_egrid_2018_subregion_kg",
                  "value" : 125440.13705631657
               },
               {
                  "name" : "annual_cooling_hvac_electricity_ghg_emissions_egrid_2018_subregion_kg",
                  "value" : 80337.75987878954
               },
               {
                  "name" : "annual_electricity_ghg_emissions_egrid_2019_subregion_kg",
                  "value" : 202524.42318403194
               },
               {
                  "name" : "annual_heating_electricity_ghg_emissions_egrid_2019_subregion_kg",
                  "value" : 8639.6201732849804
               },
               {
                  "name" : "annual_interior_lights_electricity_ghg_emissions_egrid_2019_subregion_kg",
                  "value" : 20370.777705761502
               },
               {
                  "name" : "annual_exterior_lights_electricity_ghg_emissions_egrid_2019_subregion_kg",
                  "value" : 4954.4188807988439
               },
               {
                  "name" : "annual_interior_equipment_electricity_ghg_emissions_egrid_2019_subregion_kg",
                  "value" : 59990.80290719324
               },
               {
                  "name" : "annual_refrigeration_electricity_ghg_emissions_egrid_2019_subregion_kg",
                  "value" : 0.0
               },
               {
                  "name" : "annual_water_systems_electricity_ghg_emissions_egrid_2019_subregion_kg",
                  "value" : 1363.7747416841235
               },
               {
                  "name" : "annual_total_hvac_electricity_ghg_emissions_egrid_2019_subregion_kg",
                  "value" : 115844.64894859519
               },
               {
                  "name" : "annual_cooling_hvac_electricity_ghg_emissions_egrid_2019_subregion_kg",
                  "value" : 74192.358274422571
               },
               {
                  "name" : "annual_electricity_ghg_emissions_egrid_2020_subregion_kg",
                  "value" : 196361.08963018868
               },
               {
                  "name" : "annual_heating_electricity_ghg_emissions_egrid_2020_subregion_kg",
                  "value" : 8376.6945464923956
               },
               {
                  "name" : "annual_interior_lights_electricity_ghg_emissions_egrid_2020_subregion_kg",
                  "value" : 19750.843103416213
               },
               {
                  "name" : "annual_exterior_lights_electricity_ghg_emissions_egrid_2020_subregion_kg",
                  "value" : 4803.6433069310215
               },
               {
                  "name" : "annual_interior_equipment_electricity_ghg_emissions_egrid_2020_subregion_kg",
                  "value" : 58165.130118366578
               },
               {
                  "name" : "annual_refrigeration_electricity_ghg_emissions_egrid_2020_subregion_kg",
                  "value" : 0.0
               },
               {
                  "name" : "annual_water_systems_electricity_ghg_emissions_egrid_2020_subregion_kg",
                  "value" : 1322.2716059479076
               },
               {
                  "name" : "annual_total_hvac_electricity_ghg_emissions_egrid_2020_subregion_kg",
                  "value" : 112319.20149552789
               },
               {
                  "name" : "annual_cooling_hvac_electricity_ghg_emissions_egrid_2020_subregion_kg",
                  "value" : 71934.496017602374
               },
               {
                  "name" : "annual_electricity_ghg_emissions_egrid_2021_subregion_kg",
                  "value" : 195918.10735157531
               },
               {
                  "name" : "annual_heating_electricity_ghg_emissions_egrid_2021_subregion_kg",
                  "value" : 8357.7970793595632
               },
               {
                  "name" : "annual_interior_lights_electricity_ghg_emissions_egrid_2021_subregion_kg",
                  "value" : 19706.286040206975
               },
               {
                  "name" : "annual_exterior_lights_electricity_ghg_emissions_egrid_2021_subregion_kg",
                  "value" : 4792.8064916446638
               },
               {
                  "name" : "annual_interior_equipment_electricity_ghg_emissions_egrid_2021_subregion_kg",
                  "value" : 58033.912055133158
               },
               {
                  "name" : "annual_refrigeration_electricity_ghg_emissions_egrid_2021_subregion_kg",
                  "value" : 0.0
               },
               {
                  "name" : "annual_water_systems_electricity_ghg_emissions_egrid_2021_subregion_kg",
                  "value" : 1319.2886173626857
               },
               {
                  "name" : "annual_total_hvac_electricity_ghg_emissions_egrid_2021_subregion_kg",
                  "value" : 112065.81414722874
               },
               {
                  "name" : "annual_cooling_hvac_electricity_ghg_emissions_egrid_2021_subregion_kg",
                  "value" : 71772.214849694836
               },
               {
                  "name" : "annual_electricity_ghg_emissions_egrid_2018_state_kg",
                  "value" : 222012.12956984216
               },
               {
                  "name" : "annual_heating_electricity_ghg_emissions_egrid_2018_state_kg",
                  "value" : 9470.9588265441362
               },
               {
                  "name" : "annual_interior_lights_electricity_ghg_emissions_egrid_2018_state_kg",
                  "value" : 22330.93504648755
               },
               {
                  "name" : "annual_exterior_lights_electricity_ghg_emissions_egrid_2018_state_kg",
                  "value" : 5431.1527924100283
               },
               {
                  "name" : "annual_interior_equipment_electricity_ghg_emissions_egrid_2018_state_kg",
                  "value" : 65763.356826984222
               },
               {
                  "name" : "annual_refrigeration_electricity_ghg_emissions_egrid_2018_state_kg",
                  "value" : 0.0
               },
               {
                  "name" : "annual_water_systems_electricity_ghg_emissions_egrid_2018_state_kg",
                  "value" : 1495.0025774408718
               },
               {
                  "name" : "annual_total_hvac_electricity_ghg_emissions_egrid_2018_state_kg",
                  "value" : 126991.68232652055
               },
               {
                  "name" : "annual_cooling_hvac_electricity_ghg_emissions_egrid_2018_state_kg",
                  "value" : 81331.442397669118
               },
               {
                  "name" : "annual_electricity_ghg_emissions_egrid_2019_state_kg",
                  "value" : 205509.80983588213
               },
               {
                  "name" : "annual_heating_electricity_ghg_emissions_egrid_2019_state_kg",
                  "value" : 8766.9757106412962
               },
               {
                  "name" : "annual_interior_lights_electricity_ghg_emissions_egrid_2019_state_kg",
                  "value" : 20671.0607377755
               },
               {
                  "name" : "annual_exterior_lights_electricity_ghg_emissions_egrid_2019_state_kg",
                  "value" : 5027.4513366472474
               },
               {
                  "name" : "annual_interior_equipment_electricity_ghg_emissions_egrid_2019_state_kg",
                  "value" : 60875.119669671643
               },
               {
                  "name" : "annual_refrigeration_electricity_ghg_emissions_egrid_2019_state_kg",
                  "value" : 0.0
               },
               {
                  "name" : "annual_water_systems_electricity_ghg_emissions_egrid_2019_state_kg",
                  "value" : 1383.877970943809
               },
               {
                  "name" : "annual_total_hvac_electricity_ghg_emissions_egrid_2019_state_kg",
                  "value" : 117552.30012084488
               },
               {
                  "name" : "annual_cooling_hvac_electricity_ghg_emissions_egrid_2019_state_kg",
                  "value" : 75286.018350474144
               },
               {
                  "name" : "annual_electricity_ghg_emissions_egrid_2020_state_kg",
                  "value" : 197285.00401773554
               },
               {
                  "name" : "annual_heating_electricity_ghg_emissions_egrid_2020_state_kg",
                  "value" : 8416.1084070803827
               },
               {
                  "name" : "annual_interior_lights_electricity_ghg_emissions_egrid_2020_state_kg",
                  "value" : 19843.774387021298
               },
               {
                  "name" : "annual_exterior_lights_electricity_ghg_emissions_egrid_2020_state_kg",
                  "value" : 4826.2453161797748
               },
               {
                  "name" : "annual_interior_equipment_electricity_ghg_emissions_egrid_2020_state_kg",
                  "value" : 58438.807559610686
               },
               {
                  "name" : "annual_refrigeration_electricity_ghg_emissions_egrid_2020_state_kg",
                  "value" : 0.0
               },
               {
                  "name" : "annual_water_systems_electricity_ghg_emissions_egrid_2020_state_kg",
                  "value" : 1328.4931326428386
               },
               {
                  "name" : "annual_total_hvac_electricity_ghg_emissions_egrid_2020_state_kg",
                  "value" : 112847.68362228188
               },
               {
                  "name" : "annual_cooling_hvac_electricity_ghg_emissions_egrid_2020_state_kg",
                  "value" : 72272.960812011297
               },
               {
                  "name" : "annual_electricity_ghg_emissions_egrid_2021_state_kg",
                  "value" : 196187.50429520587
               },
               {
                  "name" : "annual_heating_electricity_ghg_emissions_egrid_2021_state_kg",
                  "value" : 8369.2894575736082
               },
               {
                  "name" : "annual_interior_lights_electricity_ghg_emissions_egrid_2021_state_kg",
                  "value" : 19733.383143692234
               },
               {
                  "name" : "annual_exterior_lights_electricity_ghg_emissions_egrid_2021_state_kg",
                  "value" : 4799.3968340980282
               },
               {
                  "name" : "annual_interior_equipment_electricity_ghg_emissions_egrid_2021_state_kg",
                  "value" : 58113.711511885376
               },
               {
                  "name" : "annual_refrigeration_electricity_ghg_emissions_egrid_2021_state_kg",
                  "value" : 0.0
               },
               {
                  "name" : "annual_water_systems_electricity_ghg_emissions_egrid_2021_state_kg",
                  "value" : 1321.1027034933072
               },
               {
                  "name" : "annual_total_hvac_electricity_ghg_emissions_egrid_2021_state_kg",
                  "value" : 112219.91010203786
               },
               {
                  "name" : "annual_cooling_hvac_electricity_ghg_emissions_egrid_2021_state_kg",
                  "value" : 71870.905142182237
               }
            ],
            "step_warnings" : 
            [
               "Unable to get hourly timeseries Refrigeration electricity use from the model. Cannot calculate results",
               "Unable to get hourly timeseries facility natural gas use from the model, the model may not use gas.  Cannot calculate emissions.",
               "Unable to get hourly timeseries facility fuel oil use from the model, the model may not use fuel oil.  Cannot calculate emissions.",
               "Unable to get hourly timeseries facility propane use from the model, the model may not use propane.  Cannot calculate emissions.",
               "Unable to find annual Heating natural gas use from the model, the model may not use gas for this end-use. Cannot calculate end-use emissions for this fuel.",
               "Unable to find annual Heating propane from the model, the model may not use propane for this end-use. Cannot calculate end-use emissions for this fuel.",
               "Unable to find annual Heating fuel oil from the model, the model may not use propane for this end-use. Cannot calculate end-use emissions for this fuel.",
               "Unable to find annual InteriorEquipment natural gas use from the model, the model may not use gas for this end-use. Cannot calculate end-use emissions for this fuel.",
               "Unable to find annual InteriorEquipment propane from the model, the model may not use propane for this end-use. Cannot calculate end-use emissions for this fuel.",
               "Unable to find annual InteriorEquipment fuel oil from the model, the model may not use propane for this end-use. Cannot calculate end-use emissions for this fuel.",
               "Unable to find annual WaterSystems natural gas use from the model, the model may not use gas for this end-use. Cannot calculate end-use emissions for this fuel.",
               "Unable to find annual WaterSystems propane from the model, the model may not use propane for this end-use. Cannot calculate end-use emissions for this fuel.",
               "Unable to find annual WaterSystems fuel oil from the model, the model may not use propane for this end-use. Cannot calculate end-use emissions for this fuel.",
               "Unable to find annual TotalHVAC natural gas use from the model, the model may not use gas for this end-use. Cannot calculate end-use emissions for this fuel.",
               "Unable to find annual TotalHVAC propane from the model, the model may not use propane for this end-use. Cannot calculate end-use emissions for this fuel.",
               "Unable to find annual TotalHVAC fuel oil from the model, the model may not use propane for this end-use. Cannot calculate end-use emissions for this fuel."
            ]
         }
      },
      {
         "arguments" : {},
         "measure_dir_name" : "run_directory_cleanup"
      }
   ],
   "updated_at" : "20240124T181441Z",
   "weather_file" : "weather/empty.epw"
}