Program Version,EnergyPlus, Version 23.2.0-7636e6b3e9, YMD=2024.01.24 10:59
! This file shows details about the branches, nodes, and other
! elements of the flow connections.
! This file is intended for use in "debugging" potential problems
! that may also be detected by the program, but may be more easily
! identified by "eye".
! This file is also intended to support software which draws a
! schematic diagram of the HVAC system.
! ===============================================================
! #Nodes,<Number of Unique Nodes>
 #Nodes,1459
! <Node>,<NodeNumber>,<Node Name>,<Node Fluid Type>,<# Times Node Referenced After Definition>
 Node,1,ZONE OFFICE WHOLEBUILDING - LG OFFICE A  - STORY GROUND PFP TERM OUTLET AIR NODE,Air,4
 Node,2,NODE 207,Air,3
 Node,3,ZONE OFFICE WHOLEBUILDING - LG OFFICE A  - STORY GROUND RETURN AIR NODE,Air,2
 Node,4,ZONE OFFICE WHOLEBUILDING - LG OFFICE A  - STORY MID PFP TERM OUTLET AIR NODE,Air,4
 Node,5,NODE 11,Air,3
 Node,6,ZONE OFFICE WHOLEBUILDING - LG OFFICE A  - STORY MID RETURN AIR NODE,Air,2
 Node,7,ZONE OFFICE WHOLEBUILDING - LG OFFICE A  - STORY MID10 PFP TERM OUTLET AIR NODE,Air,4
 Node,8,NODE 12,Air,3
 Node,9,ZONE OFFICE WHOLEBUILDING - LG OFFICE A  - STORY MID10 RETURN AIR NODE,Air,2
 Node,10,ZONE OFFICE WHOLEBUILDING - LG OFFICE A  - STORY MID11 PFP TERM OUTLET AIR NODE,Air,4
 Node,11,NODE 13,Air,3
 Node,12,ZONE OFFICE WHOLEBUILDING - LG OFFICE A  - STORY MID11 RETURN AIR NODE,Air,2
 Node,13,ZONE OFFICE WHOLEBUILDING - LG OFFICE A  - STORY MID12 PFP TERM OUTLET AIR NODE,Air,4
 Node,14,NODE 14,Air,3
 Node,15,ZONE OFFICE WHOLEBUILDING - LG OFFICE A  - STORY MID12 RETURN AIR NODE,Air,2
 Node,16,ZONE OFFICE WHOLEBUILDING - LG OFFICE A  - STORY MID13 PFP TERM OUTLET AIR NODE,Air,4
 Node,17,NODE 16,Air,3
 Node,18,ZONE OFFICE WHOLEBUILDING - LG OFFICE A  - STORY MID13 RETURN AIR NODE,Air,2
 Node,19,ZONE OFFICE WHOLEBUILDING - LG OFFICE A  - STORY MID14 PFP TERM OUTLET AIR NODE,Air,4
 Node,20,NODE 18,Air,3
 Node,21,ZONE OFFICE WHOLEBUILDING - LG OFFICE A  - STORY MID14 RETURN AIR NODE,Air,2
 Node,22,ZONE OFFICE WHOLEBUILDING - LG OFFICE A  - STORY MID15 PFP TERM OUTLET AIR NODE,Air,4
 Node,23,NODE 21,Air,3
 Node,24,ZONE OFFICE WHOLEBUILDING - LG OFFICE A  - STORY MID15 RETURN AIR NODE,Air,2
 Node,25,ZONE OFFICE WHOLEBUILDING - LG OFFICE A  - STORY MID16 PFP TERM OUTLET AIR NODE,Air,4
 Node,26,NODE 25,Air,3
 Node,27,ZONE OFFICE WHOLEBUILDING - LG OFFICE A  - STORY MID16 RETURN AIR NODE,Air,2
 Node,28,ZONE OFFICE WHOLEBUILDING - LG OFFICE A  - STORY MID17 PFP TERM OUTLET AIR NODE,Air,4
 Node,29,NODE 30,Air,3
 Node,30,ZONE OFFICE WHOLEBUILDING - LG OFFICE A  - STORY MID17 RETURN AIR NODE,Air,2
 Node,31,ZONE OFFICE WHOLEBUILDING - LG OFFICE A  - STORY MID18 PFP TERM OUTLET AIR NODE,Air,4
 Node,32,NODE 37,Air,3
 Node,33,ZONE OFFICE WHOLEBUILDING - LG OFFICE A  - STORY MID18 RETURN AIR NODE,Air,2
 Node,34,ZONE OFFICE WHOLEBUILDING - LG OFFICE A  - STORY MID2 PFP TERM OUTLET AIR NODE,Air,4
 Node,35,NODE 46,Air,3
 Node,36,ZONE OFFICE WHOLEBUILDING - LG OFFICE A  - STORY MID2 RETURN AIR NODE,Air,2
 Node,37,ZONE OFFICE WHOLEBUILDING - LG OFFICE A  - STORY MID3 PFP TERM OUTLET AIR NODE,Air,4
 Node,38,NODE 55,Air,3
 Node,39,ZONE OFFICE WHOLEBUILDING - LG OFFICE A  - STORY MID3 RETURN AIR NODE,Air,2
 Node,40,ZONE OFFICE WHOLEBUILDING - LG OFFICE A  - STORY MID4 PFP TERM OUTLET AIR NODE,Air,4
 Node,41,NODE 64,Air,3
 Node,42,ZONE OFFICE WHOLEBUILDING - LG OFFICE A  - STORY MID4 RETURN AIR NODE,Air,2
 Node,43,ZONE OFFICE WHOLEBUILDING - LG OFFICE A  - STORY MID5 PFP TERM OUTLET AIR NODE,Air,4
 Node,44,NODE 73,Air,3
 Node,45,ZONE OFFICE WHOLEBUILDING - LG OFFICE A  - STORY MID5 RETURN AIR NODE,Air,2
 Node,46,ZONE OFFICE WHOLEBUILDING - LG OFFICE A  - STORY MID6 PFP TERM OUTLET AIR NODE,Air,4
 Node,47,NODE 82,Air,3
 Node,48,ZONE OFFICE WHOLEBUILDING - LG OFFICE A  - STORY MID6 RETURN AIR NODE,Air,2
 Node,49,ZONE OFFICE WHOLEBUILDING - LG OFFICE A  - STORY MID7 PFP TERM OUTLET AIR NODE,Air,4
 Node,50,NODE 91,Air,3
 Node,51,ZONE OFFICE WHOLEBUILDING - LG OFFICE A  - STORY MID7 RETURN AIR NODE,Air,2
 Node,52,ZONE OFFICE WHOLEBUILDING - LG OFFICE A  - STORY MID8 PFP TERM OUTLET AIR NODE,Air,4
 Node,53,NODE 100,Air,3
 Node,54,ZONE OFFICE WHOLEBUILDING - LG OFFICE A  - STORY MID8 RETURN AIR NODE,Air,2
 Node,55,ZONE OFFICE WHOLEBUILDING - LG OFFICE A  - STORY MID9 PFP TERM OUTLET AIR NODE,Air,4
 Node,56,NODE 109,Air,3
 Node,57,ZONE OFFICE WHOLEBUILDING - LG OFFICE A  - STORY MID9 RETURN AIR NODE,Air,2
 Node,58,ZONE OFFICE WHOLEBUILDING - LG OFFICE A  - STORY TOP PFP TERM OUTLET AIR NODE,Air,4
 Node,59,NODE 118,Air,3
 Node,60,ZONE OFFICE WHOLEBUILDING - LG OFFICE A  - STORY TOP RETURN AIR NODE,Air,2
 Node,61,ZONE OFFICE WHOLEBUILDING - LG OFFICE A END_A - STORY GROUND PFP TERM OUTLET AIR NODE,Air,4
 Node,62,NODE 211,Air,3
 Node,63,ZONE OFFICE WHOLEBUILDING - LG OFFICE A END_A - STORY GROUND RETURN AIR NODE,Air,2
 Node,64,ZONE OFFICE WHOLEBUILDING - LG OFFICE A END_A - STORY MID PFP TERM OUTLET AIR NODE,Air,4
 Node,65,NODE 15,Air,3
 Node,66,ZONE OFFICE WHOLEBUILDING - LG OFFICE A END_A - STORY MID RETURN AIR NODE,Air,2
 Node,67,ZONE OFFICE WHOLEBUILDING - LG OFFICE A END_A - STORY MID10 PFP TERM OUTLET AIR NODE,Air,4
 Node,68,NODE 17,Air,3
 Node,69,ZONE OFFICE WHOLEBUILDING - LG OFFICE A END_A - STORY MID10 RETURN AIR NODE,Air,2
 Node,70,ZONE OFFICE WHOLEBUILDING - LG OFFICE A END_A - STORY MID11 PFP TERM OUTLET AIR NODE,Air,4
 Node,71,NODE 20,Air,3
 Node,72,ZONE OFFICE WHOLEBUILDING - LG OFFICE A END_A - STORY MID11 RETURN AIR NODE,Air,2
 Node,73,ZONE OFFICE WHOLEBUILDING - LG OFFICE A END_A - STORY MID12 PFP TERM OUTLET AIR NODE,Air,4
 Node,74,NODE 24,Air,3
 Node,75,ZONE OFFICE WHOLEBUILDING - LG OFFICE A END_A - STORY MID12 RETURN AIR NODE,Air,2
 Node,76,ZONE OFFICE WHOLEBUILDING - LG OFFICE A END_A - STORY MID13 PFP TERM OUTLET AIR NODE,Air,4
 Node,77,NODE 29,Air,3
 Node,78,ZONE OFFICE WHOLEBUILDING - LG OFFICE A END_A - STORY MID13 RETURN AIR NODE,Air,2
 Node,79,ZONE OFFICE WHOLEBUILDING - LG OFFICE A END_A - STORY MID14 PFP TERM OUTLET AIR NODE,Air,4
 Node,80,NODE 36,Air,3
 Node,81,ZONE OFFICE WHOLEBUILDING - LG OFFICE A END_A - STORY MID14 RETURN AIR NODE,Air,2
 Node,82,ZONE OFFICE WHOLEBUILDING - LG OFFICE A END_A - STORY MID15 PFP TERM OUTLET AIR NODE,Air,4
 Node,83,NODE 45,Air,3
 Node,84,ZONE OFFICE WHOLEBUILDING - LG OFFICE A END_A - STORY MID15 RETURN AIR NODE,Air,2
 Node,85,ZONE OFFICE WHOLEBUILDING - LG OFFICE A END_A - STORY MID16 PFP TERM OUTLET AIR NODE,Air,4
 Node,86,NODE 54,Air,3
 Node,87,ZONE OFFICE WHOLEBUILDING - LG OFFICE A END_A - STORY MID16 RETURN AIR NODE,Air,2
 Node,88,ZONE OFFICE WHOLEBUILDING - LG OFFICE A END_A - STORY MID17 PFP TERM OUTLET AIR NODE,Air,4
 Node,89,NODE 63,Air,3
 Node,90,ZONE OFFICE WHOLEBUILDING - LG OFFICE A END_A - STORY MID17 RETURN AIR NODE,Air,2
 Node,91,ZONE OFFICE WHOLEBUILDING - LG OFFICE A END_A - STORY MID18 PFP TERM OUTLET AIR NODE,Air,4
 Node,92,NODE 72,Air,3
 Node,93,ZONE OFFICE WHOLEBUILDING - LG OFFICE A END_A - STORY MID18 RETURN AIR NODE,Air,2
 Node,94,ZONE OFFICE WHOLEBUILDING - LG OFFICE A END_A - STORY MID2 PFP TERM OUTLET AIR NODE,Air,4
 Node,95,NODE 81,Air,3
 Node,96,ZONE OFFICE WHOLEBUILDING - LG OFFICE A END_A - STORY MID2 RETURN AIR NODE,Air,2
 Node,97,ZONE OFFICE WHOLEBUILDING - LG OFFICE A END_A - STORY MID3 PFP TERM OUTLET AIR NODE,Air,4
 Node,98,NODE 90,Air,3
 Node,99,ZONE OFFICE WHOLEBUILDING - LG OFFICE A END_A - STORY MID3 RETURN AIR NODE,Air,2
 Node,100,ZONE OFFICE WHOLEBUILDING - LG OFFICE A END_A - STORY MID4 PFP TERM OUTLET AIR NODE,Air,4
 Node,101,NODE 99,Air,3
 Node,102,ZONE OFFICE WHOLEBUILDING - LG OFFICE A END_A - STORY MID4 RETURN AIR NODE,Air,2
 Node,103,ZONE OFFICE WHOLEBUILDING - LG OFFICE A END_A - STORY MID5 PFP TERM OUTLET AIR NODE,Air,4
 Node,104,NODE 108,Air,3
 Node,105,ZONE OFFICE WHOLEBUILDING - LG OFFICE A END_A - STORY MID5 RETURN AIR NODE,Air,2
 Node,106,ZONE OFFICE WHOLEBUILDING - LG OFFICE A END_A - STORY MID6 PFP TERM OUTLET AIR NODE,Air,4
 Node,107,NODE 117,Air,3
 Node,108,ZONE OFFICE WHOLEBUILDING - LG OFFICE A END_A - STORY MID6 RETURN AIR NODE,Air,2
 Node,109,ZONE OFFICE WHOLEBUILDING - LG OFFICE A END_A - STORY MID7 PFP TERM OUTLET AIR NODE,Air,4
 Node,110,NODE 126,Air,3
 Node,111,ZONE OFFICE WHOLEBUILDING - LG OFFICE A END_A - STORY MID7 RETURN AIR NODE,Air,2
 Node,112,ZONE OFFICE WHOLEBUILDING - LG OFFICE A END_A - STORY MID8 PFP TERM OUTLET AIR NODE,Air,4
 Node,113,NODE 135,Air,3
 Node,114,ZONE OFFICE WHOLEBUILDING - LG OFFICE A END_A - STORY MID8 RETURN AIR NODE,Air,2
 Node,115,ZONE OFFICE WHOLEBUILDING - LG OFFICE A END_A - STORY MID9 PFP TERM OUTLET AIR NODE,Air,4
 Node,116,NODE 144,Air,3
 Node,117,ZONE OFFICE WHOLEBUILDING - LG OFFICE A END_A - STORY MID9 RETURN AIR NODE,Air,2
 Node,118,ZONE OFFICE WHOLEBUILDING - LG OFFICE A END_A - STORY TOP PFP TERM OUTLET AIR NODE,Air,4
 Node,119,NODE 153,Air,3
 Node,120,ZONE OFFICE WHOLEBUILDING - LG OFFICE A END_A - STORY TOP RETURN AIR NODE,Air,2
 Node,121,ZONE OFFICE WHOLEBUILDING - LG OFFICE A END_B - STORY GROUND PFP TERM OUTLET AIR NODE,Air,4
 Node,122,NODE 215,Air,3
 Node,123,ZONE OFFICE WHOLEBUILDING - LG OFFICE A END_B - STORY GROUND RETURN AIR NODE,Air,2
 Node,124,ZONE OFFICE WHOLEBUILDING - LG OFFICE A END_B - STORY MID PFP TERM OUTLET AIR NODE,Air,4
 Node,125,NODE 19,Air,3
 Node,126,ZONE OFFICE WHOLEBUILDING - LG OFFICE A END_B - STORY MID RETURN AIR NODE,Air,2
 Node,127,ZONE OFFICE WHOLEBUILDING - LG OFFICE A END_B - STORY MID10 PFP TERM OUTLET AIR NODE,Air,4
 Node,128,NODE 22,Air,3
 Node,129,ZONE OFFICE WHOLEBUILDING - LG OFFICE A END_B - STORY MID10 RETURN AIR NODE,Air,2
 Node,130,ZONE OFFICE WHOLEBUILDING - LG OFFICE A END_B - STORY MID11 PFP TERM OUTLET AIR NODE,Air,4
 Node,131,NODE 26,Air,3
 Node,132,ZONE OFFICE WHOLEBUILDING - LG OFFICE A END_B - STORY MID11 RETURN AIR NODE,Air,2
 Node,133,ZONE OFFICE WHOLEBUILDING - LG OFFICE A END_B - STORY MID12 PFP TERM OUTLET AIR NODE,Air,4
 Node,134,NODE 32,Air,3
 Node,135,ZONE OFFICE WHOLEBUILDING - LG OFFICE A END_B - STORY MID12 RETURN AIR NODE,Air,2
 Node,136,ZONE OFFICE WHOLEBUILDING - LG OFFICE A END_B - STORY MID13 PFP TERM OUTLET AIR NODE,Air,4
 Node,137,NODE 40,Air,3
 Node,138,ZONE OFFICE WHOLEBUILDING - LG OFFICE A END_B - STORY MID13 RETURN AIR NODE,Air,2
 Node,139,ZONE OFFICE WHOLEBUILDING - LG OFFICE A END_B - STORY MID14 PFP TERM OUTLET AIR NODE,Air,4
 Node,140,NODE 49,Air,3
 Node,141,ZONE OFFICE WHOLEBUILDING - LG OFFICE A END_B - STORY MID14 RETURN AIR NODE,Air,2
 Node,142,ZONE OFFICE WHOLEBUILDING - LG OFFICE A END_B - STORY MID15 PFP TERM OUTLET AIR NODE,Air,4
 Node,143,NODE 58,Air,3
 Node,144,ZONE OFFICE WHOLEBUILDING - LG OFFICE A END_B - STORY MID15 RETURN AIR NODE,Air,2
 Node,145,ZONE OFFICE WHOLEBUILDING - LG OFFICE A END_B - STORY MID16 PFP TERM OUTLET AIR NODE,Air,4
 Node,146,NODE 67,Air,3
 Node,147,ZONE OFFICE WHOLEBUILDING - LG OFFICE A END_B - STORY MID16 RETURN AIR NODE,Air,2
 Node,148,ZONE OFFICE WHOLEBUILDING - LG OFFICE A END_B - STORY MID17 PFP TERM OUTLET AIR NODE,Air,4
 Node,149,NODE 76,Air,3
 Node,150,ZONE OFFICE WHOLEBUILDING - LG OFFICE A END_B - STORY MID17 RETURN AIR NODE,Air,2
 Node,151,ZONE OFFICE WHOLEBUILDING - LG OFFICE A END_B - STORY MID18 PFP TERM OUTLET AIR NODE,Air,4
 Node,152,NODE 85,Air,3
 Node,153,ZONE OFFICE WHOLEBUILDING - LG OFFICE A END_B - STORY MID18 RETURN AIR NODE,Air,2
 Node,154,ZONE OFFICE WHOLEBUILDING - LG OFFICE A END_B - STORY MID2 PFP TERM OUTLET AIR NODE,Air,4
 Node,155,NODE 94,Air,3
 Node,156,ZONE OFFICE WHOLEBUILDING - LG OFFICE A END_B - STORY MID2 RETURN AIR NODE,Air,2
 Node,157,ZONE OFFICE WHOLEBUILDING - LG OFFICE A END_B - STORY MID3 PFP TERM OUTLET AIR NODE,Air,4
 Node,158,NODE 103,Air,3
 Node,159,ZONE OFFICE WHOLEBUILDING - LG OFFICE A END_B - STORY MID3 RETURN AIR NODE,Air,2
 Node,160,ZONE OFFICE WHOLEBUILDING - LG OFFICE A END_B - STORY MID4 PFP TERM OUTLET AIR NODE,Air,4
 Node,161,NODE 112,Air,3
 Node,162,ZONE OFFICE WHOLEBUILDING - LG OFFICE A END_B - STORY MID4 RETURN AIR NODE,Air,2
 Node,163,ZONE OFFICE WHOLEBUILDING - LG OFFICE A END_B - STORY MID5 PFP TERM OUTLET AIR NODE,Air,4
 Node,164,NODE 121,Air,3
 Node,165,ZONE OFFICE WHOLEBUILDING - LG OFFICE A END_B - STORY MID5 RETURN AIR NODE,Air,2
 Node,166,ZONE OFFICE WHOLEBUILDING - LG OFFICE A END_B - STORY MID6 PFP TERM OUTLET AIR NODE,Air,4
 Node,167,NODE 130,Air,3
 Node,168,ZONE OFFICE WHOLEBUILDING - LG OFFICE A END_B - STORY MID6 RETURN AIR NODE,Air,2
 Node,169,ZONE OFFICE WHOLEBUILDING - LG OFFICE A END_B - STORY MID7 PFP TERM OUTLET AIR NODE,Air,4
 Node,170,NODE 139,Air,3
 Node,171,ZONE OFFICE WHOLEBUILDING - LG OFFICE A END_B - STORY MID7 RETURN AIR NODE,Air,2
 Node,172,ZONE OFFICE WHOLEBUILDING - LG OFFICE A END_B - STORY MID8 PFP TERM OUTLET AIR NODE,Air,4
 Node,173,NODE 148,Air,3
 Node,174,ZONE OFFICE WHOLEBUILDING - LG OFFICE A END_B - STORY MID8 RETURN AIR NODE,Air,2
 Node,175,ZONE OFFICE WHOLEBUILDING - LG OFFICE A END_B - STORY MID9 PFP TERM OUTLET AIR NODE,Air,4
 Node,176,NODE 157,Air,3
 Node,177,ZONE OFFICE WHOLEBUILDING - LG OFFICE A END_B - STORY MID9 RETURN AIR NODE,Air,2
 Node,178,ZONE OFFICE WHOLEBUILDING - LG OFFICE A END_B - STORY TOP PFP TERM OUTLET AIR NODE,Air,4
 Node,179,NODE 166,Air,3
 Node,180,ZONE OFFICE WHOLEBUILDING - LG OFFICE A END_B - STORY TOP RETURN AIR NODE,Air,2
 Node,181,ZONE OFFICE WHOLEBUILDING - LG OFFICE B  - STORY GROUND PFP TERM OUTLET AIR NODE,Air,4
 Node,182,NODE 219,Air,3
 Node,183,ZONE OFFICE WHOLEBUILDING - LG OFFICE B  - STORY GROUND RETURN AIR NODE,Air,2
 Node,184,ZONE OFFICE WHOLEBUILDING - LG OFFICE B  - STORY MID PFP TERM OUTLET AIR NODE,Air,4
 Node,185,NODE 23,Air,3
 Node,186,ZONE OFFICE WHOLEBUILDING - LG OFFICE B  - STORY MID RETURN AIR NODE,Air,2
 Node,187,ZONE OFFICE WHOLEBUILDING - LG OFFICE B  - STORY MID10 PFP TERM OUTLET AIR NODE,Air,4
 Node,188,NODE 28,Air,3
 Node,189,ZONE OFFICE WHOLEBUILDING - LG OFFICE B  - STORY MID10 RETURN AIR NODE,Air,2
 Node,190,ZONE OFFICE WHOLEBUILDING - LG OFFICE B  - STORY MID11 PFP TERM OUTLET AIR NODE,Air,4
 Node,191,NODE 34,Air,3
 Node,192,ZONE OFFICE WHOLEBUILDING - LG OFFICE B  - STORY MID11 RETURN AIR NODE,Air,2
 Node,193,ZONE OFFICE WHOLEBUILDING - LG OFFICE B  - STORY MID12 PFP TERM OUTLET AIR NODE,Air,4
 Node,194,NODE 42,Air,3
 Node,195,ZONE OFFICE WHOLEBUILDING - LG OFFICE B  - STORY MID12 RETURN AIR NODE,Air,2
 Node,196,ZONE OFFICE WHOLEBUILDING - LG OFFICE B  - STORY MID13 PFP TERM OUTLET AIR NODE,Air,4
 Node,197,NODE 51,Air,3
 Node,198,ZONE OFFICE WHOLEBUILDING - LG OFFICE B  - STORY MID13 RETURN AIR NODE,Air,2
 Node,199,ZONE OFFICE WHOLEBUILDING - LG OFFICE B  - STORY MID14 PFP TERM OUTLET AIR NODE,Air,4
 Node,200,NODE 60,Air,3
 Node,201,ZONE OFFICE WHOLEBUILDING - LG OFFICE B  - STORY MID14 RETURN AIR NODE,Air,2
 Node,202,ZONE OFFICE WHOLEBUILDING - LG OFFICE B  - STORY MID15 PFP TERM OUTLET AIR NODE,Air,4
 Node,203,NODE 69,Air,3
 Node,204,ZONE OFFICE WHOLEBUILDING - LG OFFICE B  - STORY MID15 RETURN AIR NODE,Air,2
 Node,205,ZONE OFFICE WHOLEBUILDING - LG OFFICE B  - STORY MID16 PFP TERM OUTLET AIR NODE,Air,4
 Node,206,NODE 78,Air,3
 Node,207,ZONE OFFICE WHOLEBUILDING - LG OFFICE B  - STORY MID16 RETURN AIR NODE,Air,2
 Node,208,ZONE OFFICE WHOLEBUILDING - LG OFFICE B  - STORY MID17 PFP TERM OUTLET AIR NODE,Air,4
 Node,209,NODE 87,Air,3
 Node,210,ZONE OFFICE WHOLEBUILDING - LG OFFICE B  - STORY MID17 RETURN AIR NODE,Air,2
 Node,211,ZONE OFFICE WHOLEBUILDING - LG OFFICE B  - STORY MID18 PFP TERM OUTLET AIR NODE,Air,4
 Node,212,NODE 96,Air,3
 Node,213,ZONE OFFICE WHOLEBUILDING - LG OFFICE B  - STORY MID18 RETURN AIR NODE,Air,2
 Node,214,ZONE OFFICE WHOLEBUILDING - LG OFFICE B  - STORY MID2 PFP TERM OUTLET AIR NODE,Air,4
 Node,215,NODE 105,Air,3
 Node,216,ZONE OFFICE WHOLEBUILDING - LG OFFICE B  - STORY MID2 RETURN AIR NODE,Air,2
 Node,217,ZONE OFFICE WHOLEBUILDING - LG OFFICE B  - STORY MID3 PFP TERM OUTLET AIR NODE,Air,4
 Node,218,NODE 114,Air,3
 Node,219,ZONE OFFICE WHOLEBUILDING - LG OFFICE B  - STORY MID3 RETURN AIR NODE,Air,2
 Node,220,ZONE OFFICE WHOLEBUILDING - LG OFFICE B  - STORY MID4 PFP TERM OUTLET AIR NODE,Air,4
 Node,221,NODE 123,Air,3
 Node,222,ZONE OFFICE WHOLEBUILDING - LG OFFICE B  - STORY MID4 RETURN AIR NODE,Air,2
 Node,223,ZONE OFFICE WHOLEBUILDING - LG OFFICE B  - STORY MID5 PFP TERM OUTLET AIR NODE,Air,4
 Node,224,NODE 132,Air,3
 Node,225,ZONE OFFICE WHOLEBUILDING - LG OFFICE B  - STORY MID5 RETURN AIR NODE,Air,2
 Node,226,ZONE OFFICE WHOLEBUILDING - LG OFFICE B  - STORY MID6 PFP TERM OUTLET AIR NODE,Air,4
 Node,227,NODE 141,Air,3
 Node,228,ZONE OFFICE WHOLEBUILDING - LG OFFICE B  - STORY MID6 RETURN AIR NODE,Air,2
 Node,229,ZONE OFFICE WHOLEBUILDING - LG OFFICE B  - STORY MID7 PFP TERM OUTLET AIR NODE,Air,4
 Node,230,NODE 150,Air,3
 Node,231,ZONE OFFICE WHOLEBUILDING - LG OFFICE B  - STORY MID7 RETURN AIR NODE,Air,2
 Node,232,ZONE OFFICE WHOLEBUILDING - LG OFFICE B  - STORY MID8 PFP TERM OUTLET AIR NODE,Air,4
 Node,233,NODE 159,Air,3
 Node,234,ZONE OFFICE WHOLEBUILDING - LG OFFICE B  - STORY MID8 RETURN AIR NODE,Air,2
 Node,235,ZONE OFFICE WHOLEBUILDING - LG OFFICE B  - STORY MID9 PFP TERM OUTLET AIR NODE,Air,4
 Node,236,NODE 168,Air,3
 Node,237,ZONE OFFICE WHOLEBUILDING - LG OFFICE B  - STORY MID9 RETURN AIR NODE,Air,2
 Node,238,ZONE OFFICE WHOLEBUILDING - LG OFFICE B  - STORY TOP PFP TERM OUTLET AIR NODE,Air,4
 Node,239,NODE 177,Air,3
 Node,240,ZONE OFFICE WHOLEBUILDING - LG OFFICE B  - STORY TOP RETURN AIR NODE,Air,2
 Node,241,ZONE OFFICE WHOLEBUILDING - LG OFFICE B END_A - STORY GROUND PFP TERM OUTLET AIR NODE,Air,4
 Node,242,NODE 223,Air,3
 Node,243,ZONE OFFICE WHOLEBUILDING - LG OFFICE B END_A - STORY GROUND RETURN AIR NODE,Air,2
 Node,244,ZONE OFFICE WHOLEBUILDING - LG OFFICE B END_A - STORY MID PFP TERM OUTLET AIR NODE,Air,4
 Node,245,NODE 27,Air,3
 Node,246,ZONE OFFICE WHOLEBUILDING - LG OFFICE B END_A - STORY MID RETURN AIR NODE,Air,2
 Node,247,ZONE OFFICE WHOLEBUILDING - LG OFFICE B END_A - STORY MID10 PFP TERM OUTLET AIR NODE,Air,4
 Node,248,NODE 33,Air,3
 Node,249,ZONE OFFICE WHOLEBUILDING - LG OFFICE B END_A - STORY MID10 RETURN AIR NODE,Air,2
 Node,250,ZONE OFFICE WHOLEBUILDING - LG OFFICE B END_A - STORY MID11 PFP TERM OUTLET AIR NODE,Air,4
 Node,251,NODE 41,Air,3
 Node,252,ZONE OFFICE WHOLEBUILDING - LG OFFICE B END_A - STORY MID11 RETURN AIR NODE,Air,2
 Node,253,ZONE OFFICE WHOLEBUILDING - LG OFFICE B END_A - STORY MID12 PFP TERM OUTLET AIR NODE,Air,4
 Node,254,NODE 50,Air,3
 Node,255,ZONE OFFICE WHOLEBUILDING - LG OFFICE B END_A - STORY MID12 RETURN AIR NODE,Air,2
 Node,256,ZONE OFFICE WHOLEBUILDING - LG OFFICE B END_A - STORY MID13 PFP TERM OUTLET AIR NODE,Air,4
 Node,257,NODE 59,Air,3
 Node,258,ZONE OFFICE WHOLEBUILDING - LG OFFICE B END_A - STORY MID13 RETURN AIR NODE,Air,2
 Node,259,ZONE OFFICE WHOLEBUILDING - LG OFFICE B END_A - STORY MID14 PFP TERM OUTLET AIR NODE,Air,4
 Node,260,NODE 68,Air,3
 Node,261,ZONE OFFICE WHOLEBUILDING - LG OFFICE B END_A - STORY MID14 RETURN AIR NODE,Air,2
 Node,262,ZONE OFFICE WHOLEBUILDING - LG OFFICE B END_A - STORY MID15 PFP TERM OUTLET AIR NODE,Air,4
 Node,263,NODE 77,Air,3
 Node,264,ZONE OFFICE WHOLEBUILDING - LG OFFICE B END_A - STORY MID15 RETURN AIR NODE,Air,2
 Node,265,ZONE OFFICE WHOLEBUILDING - LG OFFICE B END_A - STORY MID16 PFP TERM OUTLET AIR NODE,Air,4
 Node,266,NODE 86,Air,3
 Node,267,ZONE OFFICE WHOLEBUILDING - LG OFFICE B END_A - STORY MID16 RETURN AIR NODE,Air,2
 Node,268,ZONE OFFICE WHOLEBUILDING - LG OFFICE B END_A - STORY MID17 PFP TERM OUTLET AIR NODE,Air,4
 Node,269,NODE 95,Air,3
 Node,270,ZONE OFFICE WHOLEBUILDING - LG OFFICE B END_A - STORY MID17 RETURN AIR NODE,Air,2
 Node,271,ZONE OFFICE WHOLEBUILDING - LG OFFICE B END_A - STORY MID18 PFP TERM OUTLET AIR NODE,Air,4
 Node,272,NODE 104,Air,3
 Node,273,ZONE OFFICE WHOLEBUILDING - LG OFFICE B END_A - STORY MID18 RETURN AIR NODE,Air,2
 Node,274,ZONE OFFICE WHOLEBUILDING - LG OFFICE B END_A - STORY MID2 PFP TERM OUTLET AIR NODE,Air,4
 Node,275,NODE 113,Air,3
 Node,276,ZONE OFFICE WHOLEBUILDING - LG OFFICE B END_A - STORY MID2 RETURN AIR NODE,Air,2
 Node,277,ZONE OFFICE WHOLEBUILDING - LG OFFICE B END_A - STORY MID3 PFP TERM OUTLET AIR NODE,Air,4
 Node,278,NODE 122,Air,3
 Node,279,ZONE OFFICE WHOLEBUILDING - LG OFFICE B END_A - STORY MID3 RETURN AIR NODE,Air,2
 Node,280,ZONE OFFICE WHOLEBUILDING - LG OFFICE B END_A - STORY MID4 PFP TERM OUTLET AIR NODE,Air,4
 Node,281,NODE 131,Air,3
 Node,282,ZONE OFFICE WHOLEBUILDING - LG OFFICE B END_A - STORY MID4 RETURN AIR NODE,Air,2
 Node,283,ZONE OFFICE WHOLEBUILDING - LG OFFICE B END_A - STORY MID5 PFP TERM OUTLET AIR NODE,Air,4
 Node,284,NODE 140,Air,3
 Node,285,ZONE OFFICE WHOLEBUILDING - LG OFFICE B END_A - STORY MID5 RETURN AIR NODE,Air,2
 Node,286,ZONE OFFICE WHOLEBUILDING - LG OFFICE B END_A - STORY MID6 PFP TERM OUTLET AIR NODE,Air,4
 Node,287,NODE 149,Air,3
 Node,288,ZONE OFFICE WHOLEBUILDING - LG OFFICE B END_A - STORY MID6 RETURN AIR NODE,Air,2
 Node,289,ZONE OFFICE WHOLEBUILDING - LG OFFICE B END_A - STORY MID7 PFP TERM OUTLET AIR NODE,Air,4
 Node,290,NODE 158,Air,3
 Node,291,ZONE OFFICE WHOLEBUILDING - LG OFFICE B END_A - STORY MID7 RETURN AIR NODE,Air,2
 Node,292,ZONE OFFICE WHOLEBUILDING - LG OFFICE B END_A - STORY MID8 PFP TERM OUTLET AIR NODE,Air,4
 Node,293,NODE 167,Air,3
 Node,294,ZONE OFFICE WHOLEBUILDING - LG OFFICE B END_A - STORY MID8 RETURN AIR NODE,Air,2
 Node,295,ZONE OFFICE WHOLEBUILDING - LG OFFICE B END_A - STORY MID9 PFP TERM OUTLET AIR NODE,Air,4
 Node,296,NODE 176,Air,3
 Node,297,ZONE OFFICE WHOLEBUILDING - LG OFFICE B END_A - STORY MID9 RETURN AIR NODE,Air,2
 Node,298,ZONE OFFICE WHOLEBUILDING - LG OFFICE B END_A - STORY TOP PFP TERM OUTLET AIR NODE,Air,4
 Node,299,NODE 185,Air,3
 Node,300,ZONE OFFICE WHOLEBUILDING - LG OFFICE B END_A - STORY TOP RETURN AIR NODE,Air,2
 Node,301,ZONE OFFICE WHOLEBUILDING - LG OFFICE B END_B - STORY GROUND PFP TERM OUTLET AIR NODE,Air,4
 Node,302,NODE 227,Air,3
 Node,303,ZONE OFFICE WHOLEBUILDING - LG OFFICE B END_B - STORY GROUND RETURN AIR NODE,Air,2
 Node,304,ZONE OFFICE WHOLEBUILDING - LG OFFICE B END_B - STORY MID PFP TERM OUTLET AIR NODE,Air,4
 Node,305,NODE 31,Air,3
 Node,306,ZONE OFFICE WHOLEBUILDING - LG OFFICE B END_B - STORY MID RETURN AIR NODE,Air,2
 Node,307,ZONE OFFICE WHOLEBUILDING - LG OFFICE B END_B - STORY MID10 PFP TERM OUTLET AIR NODE,Air,4
 Node,308,NODE 38,Air,3
 Node,309,ZONE OFFICE WHOLEBUILDING - LG OFFICE B END_B - STORY MID10 RETURN AIR NODE,Air,2
 Node,310,ZONE OFFICE WHOLEBUILDING - LG OFFICE B END_B - STORY MID11 PFP TERM OUTLET AIR NODE,Air,4
 Node,311,NODE 47,Air,3
 Node,312,ZONE OFFICE WHOLEBUILDING - LG OFFICE B END_B - STORY MID11 RETURN AIR NODE,Air,2
 Node,313,ZONE OFFICE WHOLEBUILDING - LG OFFICE B END_B - STORY MID12 PFP TERM OUTLET AIR NODE,Air,4
 Node,314,NODE 56,Air,3
 Node,315,ZONE OFFICE WHOLEBUILDING - LG OFFICE B END_B - STORY MID12 RETURN AIR NODE,Air,2
 Node,316,ZONE OFFICE WHOLEBUILDING - LG OFFICE B END_B - STORY MID13 PFP TERM OUTLET AIR NODE,Air,4
 Node,317,NODE 65,Air,3
 Node,318,ZONE OFFICE WHOLEBUILDING - LG OFFICE B END_B - STORY MID13 RETURN AIR NODE,Air,2
 Node,319,ZONE OFFICE WHOLEBUILDING - LG OFFICE B END_B - STORY MID14 PFP TERM OUTLET AIR NODE,Air,4
 Node,320,NODE 74,Air,3
 Node,321,ZONE OFFICE WHOLEBUILDING - LG OFFICE B END_B - STORY MID14 RETURN AIR NODE,Air,2
 Node,322,ZONE OFFICE WHOLEBUILDING - LG OFFICE B END_B - STORY MID15 PFP TERM OUTLET AIR NODE,Air,4
 Node,323,NODE 83,Air,3
 Node,324,ZONE OFFICE WHOLEBUILDING - LG OFFICE B END_B - STORY MID15 RETURN AIR NODE,Air,2
 Node,325,ZONE OFFICE WHOLEBUILDING - LG OFFICE B END_B - STORY MID16 PFP TERM OUTLET AIR NODE,Air,4
 Node,326,NODE 92,Air,3
 Node,327,ZONE OFFICE WHOLEBUILDING - LG OFFICE B END_B - STORY MID16 RETURN AIR NODE,Air,2
 Node,328,ZONE OFFICE WHOLEBUILDING - LG OFFICE B END_B - STORY MID17 PFP TERM OUTLET AIR NODE,Air,4
 Node,329,NODE 101,Air,3
 Node,330,ZONE OFFICE WHOLEBUILDING - LG OFFICE B END_B - STORY MID17 RETURN AIR NODE,Air,2
 Node,331,ZONE OFFICE WHOLEBUILDING - LG OFFICE B END_B - STORY MID18 PFP TERM OUTLET AIR NODE,Air,4
 Node,332,NODE 110,Air,3
 Node,333,ZONE OFFICE WHOLEBUILDING - LG OFFICE B END_B - STORY MID18 RETURN AIR NODE,Air,2
 Node,334,ZONE OFFICE WHOLEBUILDING - LG OFFICE B END_B - STORY MID2 PFP TERM OUTLET AIR NODE,Air,4
 Node,335,NODE 119,Air,3
 Node,336,ZONE OFFICE WHOLEBUILDING - LG OFFICE B END_B - STORY MID2 RETURN AIR NODE,Air,2
 Node,337,ZONE OFFICE WHOLEBUILDING - LG OFFICE B END_B - STORY MID3 PFP TERM OUTLET AIR NODE,Air,4
 Node,338,NODE 128,Air,3
 Node,339,ZONE OFFICE WHOLEBUILDING - LG OFFICE B END_B - STORY MID3 RETURN AIR NODE,Air,2
 Node,340,ZONE OFFICE WHOLEBUILDING - LG OFFICE B END_B - STORY MID4 PFP TERM OUTLET AIR NODE,Air,4
 Node,341,NODE 137,Air,3
 Node,342,ZONE OFFICE WHOLEBUILDING - LG OFFICE B END_B - STORY MID4 RETURN AIR NODE,Air,2
 Node,343,ZONE OFFICE WHOLEBUILDING - LG OFFICE B END_B - STORY MID5 PFP TERM OUTLET AIR NODE,Air,4
 Node,344,NODE 146,Air,3
 Node,345,ZONE OFFICE WHOLEBUILDING - LG OFFICE B END_B - STORY MID5 RETURN AIR NODE,Air,2
 Node,346,ZONE OFFICE WHOLEBUILDING - LG OFFICE B END_B - STORY MID6 PFP TERM OUTLET AIR NODE,Air,4
 Node,347,NODE 155,Air,3
 Node,348,ZONE OFFICE WHOLEBUILDING - LG OFFICE B END_B - STORY MID6 RETURN AIR NODE,Air,2
 Node,349,ZONE OFFICE WHOLEBUILDING - LG OFFICE B END_B - STORY MID7 PFP TERM OUTLET AIR NODE,Air,4
 Node,350,NODE 164,Air,3
 Node,351,ZONE OFFICE WHOLEBUILDING - LG OFFICE B END_B - STORY MID7 RETURN AIR NODE,Air,2
 Node,352,ZONE OFFICE WHOLEBUILDING - LG OFFICE B END_B - STORY MID8 PFP TERM OUTLET AIR NODE,Air,4
 Node,353,NODE 173,Air,3
 Node,354,ZONE OFFICE WHOLEBUILDING - LG OFFICE B END_B - STORY MID8 RETURN AIR NODE,Air,2
 Node,355,ZONE OFFICE WHOLEBUILDING - LG OFFICE B END_B - STORY MID9 PFP TERM OUTLET AIR NODE,Air,4
 Node,356,NODE 182,Air,3
 Node,357,ZONE OFFICE WHOLEBUILDING - LG OFFICE B END_B - STORY MID9 RETURN AIR NODE,Air,2
 Node,358,ZONE OFFICE WHOLEBUILDING - LG OFFICE B END_B - STORY TOP PFP TERM OUTLET AIR NODE,Air,4
 Node,359,NODE 191,Air,3
 Node,360,ZONE OFFICE WHOLEBUILDING - LG OFFICE B END_B - STORY TOP RETURN AIR NODE,Air,2
 Node,361,ZONE OFFICE WHOLEBUILDING - LG OFFICE C  - STORY GROUND PFP TERM OUTLET AIR NODE,Air,4
 Node,362,NODE 231,Air,3
 Node,363,ZONE OFFICE WHOLEBUILDING - LG OFFICE C  - STORY GROUND RETURN AIR NODE,Air,2
 Node,364,ZONE OFFICE WHOLEBUILDING - LG OFFICE C  - STORY MID PFP TERM OUTLET AIR NODE,Air,4
 Node,365,NODE 35,Air,3
 Node,366,ZONE OFFICE WHOLEBUILDING - LG OFFICE C  - STORY MID RETURN AIR NODE,Air,2
 Node,367,ZONE OFFICE WHOLEBUILDING - LG OFFICE C  - STORY MID10 PFP TERM OUTLET AIR NODE,Air,4
 Node,368,NODE 44,Air,3
 Node,369,ZONE OFFICE WHOLEBUILDING - LG OFFICE C  - STORY MID10 RETURN AIR NODE,Air,2
 Node,370,ZONE OFFICE WHOLEBUILDING - LG OFFICE C  - STORY MID11 PFP TERM OUTLET AIR NODE,Air,4
 Node,371,NODE 53,Air,3
 Node,372,ZONE OFFICE WHOLEBUILDING - LG OFFICE C  - STORY MID11 RETURN AIR NODE,Air,2
 Node,373,ZONE OFFICE WHOLEBUILDING - LG OFFICE C  - STORY MID12 PFP TERM OUTLET AIR NODE,Air,4
 Node,374,NODE 62,Air,3
 Node,375,ZONE OFFICE WHOLEBUILDING - LG OFFICE C  - STORY MID12 RETURN AIR NODE,Air,2
 Node,376,ZONE OFFICE WHOLEBUILDING - LG OFFICE C  - STORY MID13 PFP TERM OUTLET AIR NODE,Air,4
 Node,377,NODE 71,Air,3
 Node,378,ZONE OFFICE WHOLEBUILDING - LG OFFICE C  - STORY MID13 RETURN AIR NODE,Air,2
 Node,379,ZONE OFFICE WHOLEBUILDING - LG OFFICE C  - STORY MID14 PFP TERM OUTLET AIR NODE,Air,4
 Node,380,NODE 80,Air,3
 Node,381,ZONE OFFICE WHOLEBUILDING - LG OFFICE C  - STORY MID14 RETURN AIR NODE,Air,2
 Node,382,ZONE OFFICE WHOLEBUILDING - LG OFFICE C  - STORY MID15 PFP TERM OUTLET AIR NODE,Air,4
 Node,383,NODE 89,Air,3
 Node,384,ZONE OFFICE WHOLEBUILDING - LG OFFICE C  - STORY MID15 RETURN AIR NODE,Air,2
 Node,385,ZONE OFFICE WHOLEBUILDING - LG OFFICE C  - STORY MID16 PFP TERM OUTLET AIR NODE,Air,4
 Node,386,NODE 98,Air,3
 Node,387,ZONE OFFICE WHOLEBUILDING - LG OFFICE C  - STORY MID16 RETURN AIR NODE,Air,2
 Node,388,ZONE OFFICE WHOLEBUILDING - LG OFFICE C  - STORY MID17 PFP TERM OUTLET AIR NODE,Air,4
 Node,389,NODE 107,Air,3
 Node,390,ZONE OFFICE WHOLEBUILDING - LG OFFICE C  - STORY MID17 RETURN AIR NODE,Air,2
 Node,391,ZONE OFFICE WHOLEBUILDING - LG OFFICE C  - STORY MID18 PFP TERM OUTLET AIR NODE,Air,4
 Node,392,NODE 116,Air,3
 Node,393,ZONE OFFICE WHOLEBUILDING - LG OFFICE C  - STORY MID18 RETURN AIR NODE,Air,2
 Node,394,ZONE OFFICE WHOLEBUILDING - LG OFFICE C  - STORY MID2 PFP TERM OUTLET AIR NODE,Air,4
 Node,395,NODE 125,Air,3
 Node,396,ZONE OFFICE WHOLEBUILDING - LG OFFICE C  - STORY MID2 RETURN AIR NODE,Air,2
 Node,397,ZONE OFFICE WHOLEBUILDING - LG OFFICE C  - STORY MID3 PFP TERM OUTLET AIR NODE,Air,4
 Node,398,NODE 134,Air,3
 Node,399,ZONE OFFICE WHOLEBUILDING - LG OFFICE C  - STORY MID3 RETURN AIR NODE,Air,2
 Node,400,ZONE OFFICE WHOLEBUILDING - LG OFFICE C  - STORY MID4 PFP TERM OUTLET AIR NODE,Air,4
 Node,401,NODE 143,Air,3
 Node,402,ZONE OFFICE WHOLEBUILDING - LG OFFICE C  - STORY MID4 RETURN AIR NODE,Air,2
 Node,403,ZONE OFFICE WHOLEBUILDING - LG OFFICE C  - STORY MID5 PFP TERM OUTLET AIR NODE,Air,4
 Node,404,NODE 152,Air,3
 Node,405,ZONE OFFICE WHOLEBUILDING - LG OFFICE C  - STORY MID5 RETURN AIR NODE,Air,2
 Node,406,ZONE OFFICE WHOLEBUILDING - LG OFFICE C  - STORY MID6 PFP TERM OUTLET AIR NODE,Air,4
 Node,407,NODE 161,Air,3
 Node,408,ZONE OFFICE WHOLEBUILDING - LG OFFICE C  - STORY MID6 RETURN AIR NODE,Air,2
 Node,409,ZONE OFFICE WHOLEBUILDING - LG OFFICE C  - STORY MID7 PFP TERM OUTLET AIR NODE,Air,4
 Node,410,NODE 170,Air,3
 Node,411,ZONE OFFICE WHOLEBUILDING - LG OFFICE C  - STORY MID7 RETURN AIR NODE,Air,2
 Node,412,ZONE OFFICE WHOLEBUILDING - LG OFFICE C  - STORY MID8 PFP TERM OUTLET AIR NODE,Air,4
 Node,413,NODE 179,Air,3
 Node,414,ZONE OFFICE WHOLEBUILDING - LG OFFICE C  - STORY MID8 RETURN AIR NODE,Air,2
 Node,415,ZONE OFFICE WHOLEBUILDING - LG OFFICE C  - STORY MID9 PFP TERM OUTLET AIR NODE,Air,4
 Node,416,NODE 188,Air,3
 Node,417,ZONE OFFICE WHOLEBUILDING - LG OFFICE C  - STORY MID9 RETURN AIR NODE,Air,2
 Node,418,ZONE OFFICE WHOLEBUILDING - LG OFFICE C  - STORY TOP PFP TERM OUTLET AIR NODE,Air,4
 Node,419,NODE 197,Air,3
 Node,420,ZONE OFFICE WHOLEBUILDING - LG OFFICE C  - STORY TOP RETURN AIR NODE,Air,2
 Node,421,ZONE OFFICE WHOLEBUILDING - LG OFFICE C END_A - STORY GROUND PFP TERM OUTLET AIR NODE,Air,4
 Node,422,NODE 235,Air,3
 Node,423,ZONE OFFICE WHOLEBUILDING - LG OFFICE C END_A - STORY GROUND RETURN AIR NODE,Air,2
 Node,424,ZONE OFFICE WHOLEBUILDING - LG OFFICE C END_A - STORY MID PFP TERM OUTLET AIR NODE,Air,4
 Node,425,NODE 39,Air,3
 Node,426,ZONE OFFICE WHOLEBUILDING - LG OFFICE C END_A - STORY MID RETURN AIR NODE,Air,2
 Node,427,ZONE OFFICE WHOLEBUILDING - LG OFFICE C END_A - STORY MID10 PFP TERM OUTLET AIR NODE,Air,4
 Node,428,NODE 48,Air,3
 Node,429,ZONE OFFICE WHOLEBUILDING - LG OFFICE C END_A - STORY MID10 RETURN AIR NODE,Air,2
 Node,430,ZONE OFFICE WHOLEBUILDING - LG OFFICE C END_A - STORY MID11 PFP TERM OUTLET AIR NODE,Air,4
 Node,431,NODE 57,Air,3
 Node,432,ZONE OFFICE WHOLEBUILDING - LG OFFICE C END_A - STORY MID11 RETURN AIR NODE,Air,2
 Node,433,ZONE OFFICE WHOLEBUILDING - LG OFFICE C END_A - STORY MID12 PFP TERM OUTLET AIR NODE,Air,4
 Node,434,NODE 66,Air,3
 Node,435,ZONE OFFICE WHOLEBUILDING - LG OFFICE C END_A - STORY MID12 RETURN AIR NODE,Air,2
 Node,436,ZONE OFFICE WHOLEBUILDING - LG OFFICE C END_A - STORY MID13 PFP TERM OUTLET AIR NODE,Air,4
 Node,437,NODE 75,Air,3
 Node,438,ZONE OFFICE WHOLEBUILDING - LG OFFICE C END_A - STORY MID13 RETURN AIR NODE,Air,2
 Node,439,ZONE OFFICE WHOLEBUILDING - LG OFFICE C END_A - STORY MID14 PFP TERM OUTLET AIR NODE,Air,4
 Node,440,NODE 84,Air,3
 Node,441,ZONE OFFICE WHOLEBUILDING - LG OFFICE C END_A - STORY MID14 RETURN AIR NODE,Air,2
 Node,442,ZONE OFFICE WHOLEBUILDING - LG OFFICE C END_A - STORY MID15 PFP TERM OUTLET AIR NODE,Air,4
 Node,443,NODE 93,Air,3
 Node,444,ZONE OFFICE WHOLEBUILDING - LG OFFICE C END_A - STORY MID15 RETURN AIR NODE,Air,2
 Node,445,ZONE OFFICE WHOLEBUILDING - LG OFFICE C END_A - STORY MID16 PFP TERM OUTLET AIR NODE,Air,4
 Node,446,NODE 102,Air,3
 Node,447,ZONE OFFICE WHOLEBUILDING - LG OFFICE C END_A - STORY MID16 RETURN AIR NODE,Air,2
 Node,448,ZONE OFFICE WHOLEBUILDING - LG OFFICE C END_A - STORY MID17 PFP TERM OUTLET AIR NODE,Air,4
 Node,449,NODE 111,Air,3
 Node,450,ZONE OFFICE WHOLEBUILDING - LG OFFICE C END_A - STORY MID17 RETURN AIR NODE,Air,2
 Node,451,ZONE OFFICE WHOLEBUILDING - LG OFFICE C END_A - STORY MID18 PFP TERM OUTLET AIR NODE,Air,4
 Node,452,NODE 120,Air,3
 Node,453,ZONE OFFICE WHOLEBUILDING - LG OFFICE C END_A - STORY MID18 RETURN AIR NODE,Air,2
 Node,454,ZONE OFFICE WHOLEBUILDING - LG OFFICE C END_A - STORY MID2 PFP TERM OUTLET AIR NODE,Air,4
 Node,455,NODE 129,Air,3
 Node,456,ZONE OFFICE WHOLEBUILDING - LG OFFICE C END_A - STORY MID2 RETURN AIR NODE,Air,2
 Node,457,ZONE OFFICE WHOLEBUILDING - LG OFFICE C END_A - STORY MID3 PFP TERM OUTLET AIR NODE,Air,4
 Node,458,NODE 138,Air,3
 Node,459,ZONE OFFICE WHOLEBUILDING - LG OFFICE C END_A - STORY MID3 RETURN AIR NODE,Air,2
 Node,460,ZONE OFFICE WHOLEBUILDING - LG OFFICE C END_A - STORY MID4 PFP TERM OUTLET AIR NODE,Air,4
 Node,461,NODE 147,Air,3
 Node,462,ZONE OFFICE WHOLEBUILDING - LG OFFICE C END_A - STORY MID4 RETURN AIR NODE,Air,2
 Node,463,ZONE OFFICE WHOLEBUILDING - LG OFFICE C END_A - STORY MID5 PFP TERM OUTLET AIR NODE,Air,4
 Node,464,NODE 156,Air,3
 Node,465,ZONE OFFICE WHOLEBUILDING - LG OFFICE C END_A - STORY MID5 RETURN AIR NODE,Air,2
 Node,466,ZONE OFFICE WHOLEBUILDING - LG OFFICE C END_A - STORY MID6 PFP TERM OUTLET AIR NODE,Air,4
 Node,467,NODE 165,Air,3
 Node,468,ZONE OFFICE WHOLEBUILDING - LG OFFICE C END_A - STORY MID6 RETURN AIR NODE,Air,2
 Node,469,ZONE OFFICE WHOLEBUILDING - LG OFFICE C END_A - STORY MID7 PFP TERM OUTLET AIR NODE,Air,4
 Node,470,NODE 174,Air,3
 Node,471,ZONE OFFICE WHOLEBUILDING - LG OFFICE C END_A - STORY MID7 RETURN AIR NODE,Air,2
 Node,472,ZONE OFFICE WHOLEBUILDING - LG OFFICE C END_A - STORY MID8 PFP TERM OUTLET AIR NODE,Air,4
 Node,473,NODE 183,Air,3
 Node,474,ZONE OFFICE WHOLEBUILDING - LG OFFICE C END_A - STORY MID8 RETURN AIR NODE,Air,2
 Node,475,ZONE OFFICE WHOLEBUILDING - LG OFFICE C END_A - STORY MID9 PFP TERM OUTLET AIR NODE,Air,4
 Node,476,NODE 192,Air,3
 Node,477,ZONE OFFICE WHOLEBUILDING - LG OFFICE C END_A - STORY MID9 RETURN AIR NODE,Air,2
 Node,478,ZONE OFFICE WHOLEBUILDING - LG OFFICE C END_A - STORY TOP PFP TERM OUTLET AIR NODE,Air,4
 Node,479,NODE 201,Air,3
 Node,480,ZONE OFFICE WHOLEBUILDING - LG OFFICE C END_A - STORY TOP RETURN AIR NODE,Air,2
 Node,481,ZONE OFFICE WHOLEBUILDING - LG OFFICE C END_B - STORY GROUND PFP TERM OUTLET AIR NODE,Air,4
 Node,482,NODE 239,Air,3
 Node,483,ZONE OFFICE WHOLEBUILDING - LG OFFICE C END_B - STORY GROUND RETURN AIR NODE,Air,2
 Node,484,ZONE OFFICE WHOLEBUILDING - LG OFFICE C END_B - STORY MID PFP TERM OUTLET AIR NODE,Air,4
 Node,485,NODE 43,Air,3
 Node,486,ZONE OFFICE WHOLEBUILDING - LG OFFICE C END_B - STORY MID RETURN AIR NODE,Air,2
 Node,487,ZONE OFFICE WHOLEBUILDING - LG OFFICE C END_B - STORY MID10 PFP TERM OUTLET AIR NODE,Air,4
 Node,488,NODE 52,Air,3
 Node,489,ZONE OFFICE WHOLEBUILDING - LG OFFICE C END_B - STORY MID10 RETURN AIR NODE,Air,2
 Node,490,ZONE OFFICE WHOLEBUILDING - LG OFFICE C END_B - STORY MID11 PFP TERM OUTLET AIR NODE,Air,4
 Node,491,NODE 61,Air,3
 Node,492,ZONE OFFICE WHOLEBUILDING - LG OFFICE C END_B - STORY MID11 RETURN AIR NODE,Air,2
 Node,493,ZONE OFFICE WHOLEBUILDING - LG OFFICE C END_B - STORY MID12 PFP TERM OUTLET AIR NODE,Air,4
 Node,494,NODE 70,Air,3
 Node,495,ZONE OFFICE WHOLEBUILDING - LG OFFICE C END_B - STORY MID12 RETURN AIR NODE,Air,2
 Node,496,ZONE OFFICE WHOLEBUILDING - LG OFFICE C END_B - STORY MID13 PFP TERM OUTLET AIR NODE,Air,4
 Node,497,NODE 79,Air,3
 Node,498,ZONE OFFICE WHOLEBUILDING - LG OFFICE C END_B - STORY MID13 RETURN AIR NODE,Air,2
 Node,499,ZONE OFFICE WHOLEBUILDING - LG OFFICE C END_B - STORY MID14 PFP TERM OUTLET AIR NODE,Air,4
 Node,500,NODE 88,Air,3
 Node,501,ZONE OFFICE WHOLEBUILDING - LG OFFICE C END_B - STORY MID14 RETURN AIR NODE,Air,2
 Node,502,ZONE OFFICE WHOLEBUILDING - LG OFFICE C END_B - STORY MID15 PFP TERM OUTLET AIR NODE,Air,4
 Node,503,NODE 97,Air,3
 Node,504,ZONE OFFICE WHOLEBUILDING - LG OFFICE C END_B - STORY MID15 RETURN AIR NODE,Air,2
 Node,505,ZONE OFFICE WHOLEBUILDING - LG OFFICE C END_B - STORY MID16 PFP TERM OUTLET AIR NODE,Air,4
 Node,506,NODE 106,Air,3
 Node,507,ZONE OFFICE WHOLEBUILDING - LG OFFICE C END_B - STORY MID16 RETURN AIR NODE,Air,2
 Node,508,ZONE OFFICE WHOLEBUILDING - LG OFFICE C END_B - STORY MID17 PFP TERM OUTLET AIR NODE,Air,4
 Node,509,NODE 115,Air,3
 Node,510,ZONE OFFICE WHOLEBUILDING - LG OFFICE C END_B - STORY MID17 RETURN AIR NODE,Air,2
 Node,511,ZONE OFFICE WHOLEBUILDING - LG OFFICE C END_B - STORY MID18 PFP TERM OUTLET AIR NODE,Air,4
 Node,512,NODE 124,Air,3
 Node,513,ZONE OFFICE WHOLEBUILDING - LG OFFICE C END_B - STORY MID18 RETURN AIR NODE,Air,2
 Node,514,ZONE OFFICE WHOLEBUILDING - LG OFFICE C END_B - STORY MID2 PFP TERM OUTLET AIR NODE,Air,4
 Node,515,NODE 133,Air,3
 Node,516,ZONE OFFICE WHOLEBUILDING - LG OFFICE C END_B - STORY MID2 RETURN AIR NODE,Air,2
 Node,517,ZONE OFFICE WHOLEBUILDING - LG OFFICE C END_B - STORY MID3 PFP TERM OUTLET AIR NODE,Air,4
 Node,518,NODE 142,Air,3
 Node,519,ZONE OFFICE WHOLEBUILDING - LG OFFICE C END_B - STORY MID3 RETURN AIR NODE,Air,2
 Node,520,ZONE OFFICE WHOLEBUILDING - LG OFFICE C END_B - STORY MID4 PFP TERM OUTLET AIR NODE,Air,4
 Node,521,NODE 151,Air,3
 Node,522,ZONE OFFICE WHOLEBUILDING - LG OFFICE C END_B - STORY MID4 RETURN AIR NODE,Air,2
 Node,523,ZONE OFFICE WHOLEBUILDING - LG OFFICE C END_B - STORY MID5 PFP TERM OUTLET AIR NODE,Air,4
 Node,524,NODE 160,Air,3
 Node,525,ZONE OFFICE WHOLEBUILDING - LG OFFICE C END_B - STORY MID5 RETURN AIR NODE,Air,2
 Node,526,ZONE OFFICE WHOLEBUILDING - LG OFFICE C END_B - STORY MID6 PFP TERM OUTLET AIR NODE,Air,4
 Node,527,NODE 169,Air,3
 Node,528,ZONE OFFICE WHOLEBUILDING - LG OFFICE C END_B - STORY MID6 RETURN AIR NODE,Air,2
 Node,529,ZONE OFFICE WHOLEBUILDING - LG OFFICE C END_B - STORY MID7 PFP TERM OUTLET AIR NODE,Air,4
 Node,530,NODE 178,Air,3
 Node,531,ZONE OFFICE WHOLEBUILDING - LG OFFICE C END_B - STORY MID7 RETURN AIR NODE,Air,2
 Node,532,ZONE OFFICE WHOLEBUILDING - LG OFFICE C END_B - STORY MID8 PFP TERM OUTLET AIR NODE,Air,4
 Node,533,NODE 187,Air,3
 Node,534,ZONE OFFICE WHOLEBUILDING - LG OFFICE C END_B - STORY MID8 RETURN AIR NODE,Air,2
 Node,535,ZONE OFFICE WHOLEBUILDING - LG OFFICE C END_B - STORY MID9 PFP TERM OUTLET AIR NODE,Air,4
 Node,536,NODE 196,Air,3
 Node,537,ZONE OFFICE WHOLEBUILDING - LG OFFICE C END_B - STORY MID9 RETURN AIR NODE,Air,2
 Node,538,ZONE OFFICE WHOLEBUILDING - LG OFFICE C END_B - STORY TOP PFP TERM OUTLET AIR NODE,Air,4
 Node,539,NODE 205,Air,3
 Node,540,ZONE OFFICE WHOLEBUILDING - LG OFFICE C END_B - STORY TOP RETURN AIR NODE,Air,2
 Node,541,9 ZONE PVAV WITH PFP BOXES AND REHEAT SUPPLY OUTLET NODE,Air,10
 Node,542,9 ZONE PVAV WITH PFP BOXES AND REHEAT DEMAND INLET NODE,Air,3
 Node,543,9 ZONE PVAV WITH PFP BOXES AND REHEAT 1 SUPPLY OUTLET NODE,Air,10
 Node,544,9 ZONE PVAV WITH PFP BOXES AND REHEAT 1 DEMAND INLET NODE,Air,3
 Node,545,9 ZONE PVAV WITH PFP BOXES AND REHEAT 10 SUPPLY OUTLET NODE,Air,10
 Node,546,9 ZONE PVAV WITH PFP BOXES AND REHEAT 10 DEMAND INLET NODE,Air,3
 Node,547,9 ZONE PVAV WITH PFP BOXES AND REHEAT 11 SUPPLY OUTLET NODE,Air,10
 Node,548,9 ZONE PVAV WITH PFP BOXES AND REHEAT 11 DEMAND INLET NODE,Air,3
 Node,549,9 ZONE PVAV WITH PFP BOXES AND REHEAT 12 SUPPLY OUTLET NODE,Air,10
 Node,550,9 ZONE PVAV WITH PFP BOXES AND REHEAT 12 DEMAND INLET NODE,Air,3
 Node,551,9 ZONE PVAV WITH PFP BOXES AND REHEAT 13 SUPPLY OUTLET NODE,Air,10
 Node,552,9 ZONE PVAV WITH PFP BOXES AND REHEAT 13 DEMAND INLET NODE,Air,3
 Node,553,9 ZONE PVAV WITH PFP BOXES AND REHEAT 14 SUPPLY OUTLET NODE,Air,10
 Node,554,9 ZONE PVAV WITH PFP BOXES AND REHEAT 14 DEMAND INLET NODE,Air,3
 Node,555,9 ZONE PVAV WITH PFP BOXES AND REHEAT 15 SUPPLY OUTLET NODE,Air,10
 Node,556,9 ZONE PVAV WITH PFP BOXES AND REHEAT 15 DEMAND INLET NODE,Air,3
 Node,557,9 ZONE PVAV WITH PFP BOXES AND REHEAT 16 SUPPLY OUTLET NODE,Air,10
 Node,558,9 ZONE PVAV WITH PFP BOXES AND REHEAT 16 DEMAND INLET NODE,Air,3
 Node,559,9 ZONE PVAV WITH PFP BOXES AND REHEAT 17 SUPPLY OUTLET NODE,Air,10
 Node,560,9 ZONE PVAV WITH PFP BOXES AND REHEAT 17 DEMAND INLET NODE,Air,3
 Node,561,9 ZONE PVAV WITH PFP BOXES AND REHEAT 18 SUPPLY OUTLET NODE,Air,10
 Node,562,9 ZONE PVAV WITH PFP BOXES AND REHEAT 18 DEMAND INLET NODE,Air,3
 Node,563,9 ZONE PVAV WITH PFP BOXES AND REHEAT 19 SUPPLY OUTLET NODE,Air,10
 Node,564,9 ZONE PVAV WITH PFP BOXES AND REHEAT 19 DEMAND INLET NODE,Air,3
 Node,565,9 ZONE PVAV WITH PFP BOXES AND REHEAT 2 SUPPLY OUTLET NODE,Air,10
 Node,566,9 ZONE PVAV WITH PFP BOXES AND REHEAT 2 DEMAND INLET NODE,Air,3
 Node,567,9 ZONE PVAV WITH PFP BOXES AND REHEAT 3 SUPPLY OUTLET NODE,Air,10
 Node,568,9 ZONE PVAV WITH PFP BOXES AND REHEAT 3 DEMAND INLET NODE,Air,3
 Node,569,9 ZONE PVAV WITH PFP BOXES AND REHEAT 4 SUPPLY OUTLET NODE,Air,10
 Node,570,9 ZONE PVAV WITH PFP BOXES AND REHEAT 4 DEMAND INLET NODE,Air,3
 Node,571,9 ZONE PVAV WITH PFP BOXES AND REHEAT 5 SUPPLY OUTLET NODE,Air,10
 Node,572,9 ZONE PVAV WITH PFP BOXES AND REHEAT 5 DEMAND INLET NODE,Air,3
 Node,573,9 ZONE PVAV WITH PFP BOXES AND REHEAT 6 SUPPLY OUTLET NODE,Air,10
 Node,574,9 ZONE PVAV WITH PFP BOXES AND REHEAT 6 DEMAND INLET NODE,Air,3
 Node,575,9 ZONE PVAV WITH PFP BOXES AND REHEAT 7 SUPPLY OUTLET NODE,Air,10
 Node,576,9 ZONE PVAV WITH PFP BOXES AND REHEAT 7 DEMAND INLET NODE,Air,3
 Node,577,9 ZONE PVAV WITH PFP BOXES AND REHEAT 8 SUPPLY OUTLET NODE,Air,10
 Node,578,9 ZONE PVAV WITH PFP BOXES AND REHEAT 8 DEMAND INLET NODE,Air,3
 Node,579,9 ZONE PVAV WITH PFP BOXES AND REHEAT 9 SUPPLY OUTLET NODE,Air,10
 Node,580,9 ZONE PVAV WITH PFP BOXES AND REHEAT 9 DEMAND INLET NODE,Air,3
 Node,581,9 ZONE PVAV WITH PFP BOXES AND REHEAT SUPPLY INLET NODE,Air,3
 Node,582,9 ZONE PVAV WITH PFP BOXES AND REHEAT MIXED AIR NODE,Air,6
 Node,583,9 ZONE PVAV WITH PFP BOXES AND REHEAT 2SPD DX CLG COIL OUTLET AIR NODE,Air,6
 Node,584,9 ZONE PVAV WITH PFP BOXES AND REHEAT MAIN HTG COIL OUTLET AIR NODE,Air,8
 Node,585,9 ZONE PVAV WITH PFP BOXES AND REHEAT 1 SUPPLY INLET NODE,Air,3
 Node,586,9 ZONE PVAV WITH PFP BOXES AND REHEAT 1 MIXED AIR NODE,Air,6
 Node,587,9 ZONE PVAV WITH PFP BOXES AND REHEAT 1 2SPD DX CLG COIL OUTLET AIR NODE,Air,6
 Node,588,9 ZONE PVAV WITH PFP BOXES AND REHEAT 1 MAIN HTG COIL OUTLET AIR NODE,Air,8
 Node,589,9 ZONE PVAV WITH PFP BOXES AND REHEAT 10 SUPPLY INLET NODE,Air,3
 Node,590,9 ZONE PVAV WITH PFP BOXES AND REHEAT 10 MIXED AIR NODE,Air,6
 Node,591,9 ZONE PVAV WITH PFP BOXES AND REHEAT 10 2SPD DX CLG COIL OUTLET AIR NODE,Air,6
 Node,592,9 ZONE PVAV WITH PFP BOXES AND REHEAT 10 MAIN HTG COIL OUTLET AIR NODE,Air,8
 Node,593,9 ZONE PVAV WITH PFP BOXES AND REHEAT 11 SUPPLY INLET NODE,Air,3
 Node,594,9 ZONE PVAV WITH PFP BOXES AND REHEAT 11 MIXED AIR NODE,Air,6
 Node,595,9 ZONE PVAV WITH PFP BOXES AND REHEAT 11 2SPD DX CLG COIL OUTLET AIR NODE,Air,6
 Node,596,9 ZONE PVAV WITH PFP BOXES AND REHEAT 11 MAIN HTG COIL OUTLET AIR NODE,Air,8
 Node,597,9 ZONE PVAV WITH PFP BOXES AND REHEAT 12 SUPPLY INLET NODE,Air,3
 Node,598,9 ZONE PVAV WITH PFP BOXES AND REHEAT 12 MIXED AIR NODE,Air,6
 Node,599,9 ZONE PVAV WITH PFP BOXES AND REHEAT 12 2SPD DX CLG COIL OUTLET AIR NODE,Air,6
 Node,600,9 ZONE PVAV WITH PFP BOXES AND REHEAT 12 MAIN HTG COIL OUTLET AIR NODE,Air,8
 Node,601,9 ZONE PVAV WITH PFP BOXES AND REHEAT 13 SUPPLY INLET NODE,Air,3
 Node,602,9 ZONE PVAV WITH PFP BOXES AND REHEAT 13 MIXED AIR NODE,Air,6
 Node,603,9 ZONE PVAV WITH PFP BOXES AND REHEAT 13 2SPD DX CLG COIL OUTLET AIR NODE,Air,6
 Node,604,9 ZONE PVAV WITH PFP BOXES AND REHEAT 13 MAIN HTG COIL OUTLET AIR NODE,Air,8
 Node,605,9 ZONE PVAV WITH PFP BOXES AND REHEAT 14 SUPPLY INLET NODE,Air,3
 Node,606,9 ZONE PVAV WITH PFP BOXES AND REHEAT 14 MIXED AIR NODE,Air,6
 Node,607,9 ZONE PVAV WITH PFP BOXES AND REHEAT 14 2SPD DX CLG COIL OUTLET AIR NODE,Air,6
 Node,608,9 ZONE PVAV WITH PFP BOXES AND REHEAT 14 MAIN HTG COIL OUTLET AIR NODE,Air,8
 Node,609,9 ZONE PVAV WITH PFP BOXES AND REHEAT 15 SUPPLY INLET NODE,Air,3
 Node,610,9 ZONE PVAV WITH PFP BOXES AND REHEAT 15 MIXED AIR NODE,Air,6
 Node,611,9 ZONE PVAV WITH PFP BOXES AND REHEAT 15 2SPD DX CLG COIL OUTLET AIR NODE,Air,6
 Node,612,9 ZONE PVAV WITH PFP BOXES AND REHEAT 15 MAIN HTG COIL OUTLET AIR NODE,Air,8
 Node,613,9 ZONE PVAV WITH PFP BOXES AND REHEAT 16 SUPPLY INLET NODE,Air,3
 Node,614,9 ZONE PVAV WITH PFP BOXES AND REHEAT 16 MIXED AIR NODE,Air,6
 Node,615,9 ZONE PVAV WITH PFP BOXES AND REHEAT 16 2SPD DX CLG COIL OUTLET AIR NODE,Air,6
 Node,616,9 ZONE PVAV WITH PFP BOXES AND REHEAT 16 MAIN HTG COIL OUTLET AIR NODE,Air,8
 Node,617,9 ZONE PVAV WITH PFP BOXES AND REHEAT 17 SUPPLY INLET NODE,Air,3
 Node,618,9 ZONE PVAV WITH PFP BOXES AND REHEAT 17 MIXED AIR NODE,Air,6
 Node,619,9 ZONE PVAV WITH PFP BOXES AND REHEAT 17 2SPD DX CLG COIL OUTLET AIR NODE,Air,6
 Node,620,9 ZONE PVAV WITH PFP BOXES AND REHEAT 17 MAIN HTG COIL OUTLET AIR NODE,Air,8
 Node,621,9 ZONE PVAV WITH PFP BOXES AND REHEAT 18 SUPPLY INLET NODE,Air,3
 Node,622,9 ZONE PVAV WITH PFP BOXES AND REHEAT 18 MIXED AIR NODE,Air,6
 Node,623,9 ZONE PVAV WITH PFP BOXES AND REHEAT 18 2SPD DX CLG COIL OUTLET AIR NODE,Air,6
 Node,624,9 ZONE PVAV WITH PFP BOXES AND REHEAT 18 MAIN HTG COIL OUTLET AIR NODE,Air,8
 Node,625,9 ZONE PVAV WITH PFP BOXES AND REHEAT 19 SUPPLY INLET NODE,Air,3
 Node,626,9 ZONE PVAV WITH PFP BOXES AND REHEAT 19 MIXED AIR NODE,Air,6
 Node,627,9 ZONE PVAV WITH PFP BOXES AND REHEAT 19 2SPD DX CLG COIL OUTLET AIR NODE,Air,6
 Node,628,9 ZONE PVAV WITH PFP BOXES AND REHEAT 19 MAIN HTG COIL OUTLET AIR NODE,Air,8
 Node,629,9 ZONE PVAV WITH PFP BOXES AND REHEAT 2 SUPPLY INLET NODE,Air,3
 Node,630,9 ZONE PVAV WITH PFP BOXES AND REHEAT 2 MIXED AIR NODE,Air,6
 Node,631,9 ZONE PVAV WITH PFP BOXES AND REHEAT 2 2SPD DX CLG COIL OUTLET AIR NODE,Air,6
 Node,632,9 ZONE PVAV WITH PFP BOXES AND REHEAT 2 MAIN HTG COIL OUTLET AIR NODE,Air,8
 Node,633,9 ZONE PVAV WITH PFP BOXES AND REHEAT 3 SUPPLY INLET NODE,Air,3
 Node,634,9 ZONE PVAV WITH PFP BOXES AND REHEAT 3 MIXED AIR NODE,Air,6
 Node,635,9 ZONE PVAV WITH PFP BOXES AND REHEAT 3 2SPD DX CLG COIL OUTLET AIR NODE,Air,6
 Node,636,9 ZONE PVAV WITH PFP BOXES AND REHEAT 3 MAIN HTG COIL OUTLET AIR NODE,Air,8
 Node,637,9 ZONE PVAV WITH PFP BOXES AND REHEAT 4 SUPPLY INLET NODE,Air,3
 Node,638,9 ZONE PVAV WITH PFP BOXES AND REHEAT 4 MIXED AIR NODE,Air,6
 Node,639,9 ZONE PVAV WITH PFP BOXES AND REHEAT 4 2SPD DX CLG COIL OUTLET AIR NODE,Air,6
 Node,640,9 ZONE PVAV WITH PFP BOXES AND REHEAT 4 MAIN HTG COIL OUTLET AIR NODE,Air,8
 Node,641,9 ZONE PVAV WITH PFP BOXES AND REHEAT 5 SUPPLY INLET NODE,Air,3
 Node,642,9 ZONE PVAV WITH PFP BOXES AND REHEAT 5 MIXED AIR NODE,Air,6
 Node,643,9 ZONE PVAV WITH PFP BOXES AND REHEAT 5 2SPD DX CLG COIL OUTLET AIR NODE,Air,6
 Node,644,9 ZONE PVAV WITH PFP BOXES AND REHEAT 5 MAIN HTG COIL OUTLET AIR NODE,Air,8
 Node,645,9 ZONE PVAV WITH PFP BOXES AND REHEAT 6 SUPPLY INLET NODE,Air,3
 Node,646,9 ZONE PVAV WITH PFP BOXES AND REHEAT 6 MIXED AIR NODE,Air,6
 Node,647,9 ZONE PVAV WITH PFP BOXES AND REHEAT 6 2SPD DX CLG COIL OUTLET AIR NODE,Air,6
 Node,648,9 ZONE PVAV WITH PFP BOXES AND REHEAT 6 MAIN HTG COIL OUTLET AIR NODE,Air,8
 Node,649,9 ZONE PVAV WITH PFP BOXES AND REHEAT 7 SUPPLY INLET NODE,Air,3
 Node,650,9 ZONE PVAV WITH PFP BOXES AND REHEAT 7 MIXED AIR NODE,Air,6
 Node,651,9 ZONE PVAV WITH PFP BOXES AND REHEAT 7 2SPD DX CLG COIL OUTLET AIR NODE,Air,6
 Node,652,9 ZONE PVAV WITH PFP BOXES AND REHEAT 7 MAIN HTG COIL OUTLET AIR NODE,Air,8
 Node,653,9 ZONE PVAV WITH PFP BOXES AND REHEAT 8 SUPPLY INLET NODE,Air,3
 Node,654,9 ZONE PVAV WITH PFP BOXES AND REHEAT 8 MIXED AIR NODE,Air,6
 Node,655,9 ZONE PVAV WITH PFP BOXES AND REHEAT 8 2SPD DX CLG COIL OUTLET AIR NODE,Air,6
 Node,656,9 ZONE PVAV WITH PFP BOXES AND REHEAT 8 MAIN HTG COIL OUTLET AIR NODE,Air,8
 Node,657,9 ZONE PVAV WITH PFP BOXES AND REHEAT 9 SUPPLY INLET NODE,Air,3
 Node,658,9 ZONE PVAV WITH PFP BOXES AND REHEAT 9 MIXED AIR NODE,Air,6
 Node,659,9 ZONE PVAV WITH PFP BOXES AND REHEAT 9 2SPD DX CLG COIL OUTLET AIR NODE,Air,6
 Node,660,9 ZONE PVAV WITH PFP BOXES AND REHEAT 9 MAIN HTG COIL OUTLET AIR NODE,Air,8
 Node,661,OFFICE SHARED SERVICE WATER LOOP SUPPLY INLET NODE,Water,2
 Node,662,OFFICE SHARED SERVICE WATER LOOP CIRCULATOR PUMP OUTLET WATER NODE,Water,1
 Node,663,40GAL ELECTRICITY WATER HEATER - 3KBTU/HR SUPPLY INLET WATER NODE,Water,1
 Node,664,40GAL ELECTRICITY WATER HEATER - 3KBTU/HR SUPPLY OUTLET WATER NODE,Water,1
 Node,665,PIPE ADIABATIC 1 INLET WATER NODE,Water,1
 Node,666,PIPE ADIABATIC 1 OUTLET WATER NODE,Water,1
 Node,667,PIPE ADIABATIC 3 INLET WATER NODE,Water,1
 Node,668,OFFICE SHARED SERVICE WATER LOOP SUPPLY OUTLET NODE,Water,4
 Node,669,OFFICE SHARED SERVICE WATER LOOP DEMAND INLET NODE,Water,2
 Node,670,OFFICE SHARED SERVICE WATER LOOP PIPE 466.6025403784443FT OUTLET WATER NODE,Water,1
 Node,671,PIPE ADIABATIC 2 INLET WATER NODE,Water,1
 Node,672,PIPE ADIABATIC 2 OUTLET WATER NODE,Water,1
 Node,673,OFFICE WHOLEBUILDING - LG OFFICE - COMSTOCK DOE REF 1980-2004 WUC 0.08GPM AT 140F INLET WATER NODE,Water,1
 Node,674,OFFICE WHOLEBUILDING - LG OFFICE - COMSTOCK DOE REF 1980-2004 WUC 0.08GPM AT 140F OUTLET WATER NODE,Water,1
 Node,675,OFFICE SHARED SERVICE WATER LOOP DEMAND BYPASS PIPE INLET NODE,Water,1
 Node,676,OFFICE SHARED SERVICE WATER LOOP DEMAND BYPASS PIPE OUTLET NODE,Water,1
 Node,677,PIPE ADIABATIC 4 INLET WATER NODE,Water,1
 Node,678,OFFICE SHARED SERVICE WATER LOOP DEMAND OUTLET NODE,Water,2
 Node,679,ZONE OFFICE WHOLEBUILDING - LG OFFICE A  - STORY GROUND ZONE AIR NODE,Air,0
 Node,680,ZONE OFFICE WHOLEBUILDING - LG OFFICE A  - STORY MID ZONE AIR NODE,Air,0
 Node,681,ZONE OFFICE WHOLEBUILDING - LG OFFICE A  - STORY MID10 ZONE AIR NODE,Air,0
 Node,682,ZONE OFFICE WHOLEBUILDING - LG OFFICE A  - STORY MID11 ZONE AIR NODE,Air,0
 Node,683,ZONE OFFICE WHOLEBUILDING - LG OFFICE A  - STORY MID12 ZONE AIR NODE,Air,0
 Node,684,ZONE OFFICE WHOLEBUILDING - LG OFFICE A  - STORY MID13 ZONE AIR NODE,Air,0
 Node,685,ZONE OFFICE WHOLEBUILDING - LG OFFICE A  - STORY MID14 ZONE AIR NODE,Air,0
 Node,686,ZONE OFFICE WHOLEBUILDING - LG OFFICE A  - STORY MID15 ZONE AIR NODE,Air,0
 Node,687,ZONE OFFICE WHOLEBUILDING - LG OFFICE A  - STORY MID16 ZONE AIR NODE,Air,0
 Node,688,ZONE OFFICE WHOLEBUILDING - LG OFFICE A  - STORY MID17 ZONE AIR NODE,Air,0
 Node,689,ZONE OFFICE WHOLEBUILDING - LG OFFICE A  - STORY MID18 ZONE AIR NODE,Air,0
 Node,690,ZONE OFFICE WHOLEBUILDING - LG OFFICE A  - STORY MID2 ZONE AIR NODE,Air,0
 Node,691,ZONE OFFICE WHOLEBUILDING - LG OFFICE A  - STORY MID3 ZONE AIR NODE,Air,0
 Node,692,ZONE OFFICE WHOLEBUILDING - LG OFFICE A  - STORY MID4 ZONE AIR NODE,Air,0
 Node,693,ZONE OFFICE WHOLEBUILDING - LG OFFICE A  - STORY MID5 ZONE AIR NODE,Air,0
 Node,694,ZONE OFFICE WHOLEBUILDING - LG OFFICE A  - STORY MID6 ZONE AIR NODE,Air,0
 Node,695,ZONE OFFICE WHOLEBUILDING - LG OFFICE A  - STORY MID7 ZONE AIR NODE,Air,0
 Node,696,ZONE OFFICE WHOLEBUILDING - LG OFFICE A  - STORY MID8 ZONE AIR NODE,Air,0
 Node,697,ZONE OFFICE WHOLEBUILDING - LG OFFICE A  - STORY MID9 ZONE AIR NODE,Air,0
 Node,698,ZONE OFFICE WHOLEBUILDING - LG OFFICE A  - STORY TOP ZONE AIR NODE,Air,0
 Node,699,ZONE OFFICE WHOLEBUILDING - LG OFFICE A END_A - STORY GROUND ZONE AIR NODE,Air,0
 Node,700,ZONE OFFICE WHOLEBUILDING - LG OFFICE A END_A - STORY MID ZONE AIR NODE,Air,0
 Node,701,ZONE OFFICE WHOLEBUILDING - LG OFFICE A END_A - STORY MID10 ZONE AIR NODE,Air,0
 Node,702,ZONE OFFICE WHOLEBUILDING - LG OFFICE A END_A - STORY MID11 ZONE AIR NODE,Air,0
 Node,703,ZONE OFFICE WHOLEBUILDING - LG OFFICE A END_A - STORY MID12 ZONE AIR NODE,Air,0
 Node,704,ZONE OFFICE WHOLEBUILDING - LG OFFICE A END_A - STORY MID13 ZONE AIR NODE,Air,0
 Node,705,ZONE OFFICE WHOLEBUILDING - LG OFFICE A END_A - STORY MID14 ZONE AIR NODE,Air,0
 Node,706,ZONE OFFICE WHOLEBUILDING - LG OFFICE A END_A - STORY MID15 ZONE AIR NODE,Air,0
 Node,707,ZONE OFFICE WHOLEBUILDING - LG OFFICE A END_A - STORY MID16 ZONE AIR NODE,Air,0
 Node,708,ZONE OFFICE WHOLEBUILDING - LG OFFICE A END_A - STORY MID17 ZONE AIR NODE,Air,0
 Node,709,ZONE OFFICE WHOLEBUILDING - LG OFFICE A END_A - STORY MID18 ZONE AIR NODE,Air,0
 Node,710,ZONE OFFICE WHOLEBUILDING - LG OFFICE A END_A - STORY MID2 ZONE AIR NODE,Air,0
 Node,711,ZONE OFFICE WHOLEBUILDING - LG OFFICE A END_A - STORY MID3 ZONE AIR NODE,Air,0
 Node,712,ZONE OFFICE WHOLEBUILDING - LG OFFICE A END_A - STORY MID4 ZONE AIR NODE,Air,0
 Node,713,ZONE OFFICE WHOLEBUILDING - LG OFFICE A END_A - STORY MID5 ZONE AIR NODE,Air,0
 Node,714,ZONE OFFICE WHOLEBUILDING - LG OFFICE A END_A - STORY MID6 ZONE AIR NODE,Air,0
 Node,715,ZONE OFFICE WHOLEBUILDING - LG OFFICE A END_A - STORY MID7 ZONE AIR NODE,Air,0
 Node,716,ZONE OFFICE WHOLEBUILDING - LG OFFICE A END_A - STORY MID8 ZONE AIR NODE,Air,0
 Node,717,ZONE OFFICE WHOLEBUILDING - LG OFFICE A END_A - STORY MID9 ZONE AIR NODE,Air,0
 Node,718,ZONE OFFICE WHOLEBUILDING - LG OFFICE A END_A - STORY TOP ZONE AIR NODE,Air,0
 Node,719,ZONE OFFICE WHOLEBUILDING - LG OFFICE A END_B - STORY GROUND ZONE AIR NODE,Air,0
 Node,720,ZONE OFFICE WHOLEBUILDING - LG OFFICE A END_B - STORY MID ZONE AIR NODE,Air,0
 Node,721,ZONE OFFICE WHOLEBUILDING - LG OFFICE A END_B - STORY MID10 ZONE AIR NODE,Air,0
 Node,722,ZONE OFFICE WHOLEBUILDING - LG OFFICE A END_B - STORY MID11 ZONE AIR NODE,Air,0
 Node,723,ZONE OFFICE WHOLEBUILDING - LG OFFICE A END_B - STORY MID12 ZONE AIR NODE,Air,0
 Node,724,ZONE OFFICE WHOLEBUILDING - LG OFFICE A END_B - STORY MID13 ZONE AIR NODE,Air,0
 Node,725,ZONE OFFICE WHOLEBUILDING - LG OFFICE A END_B - STORY MID14 ZONE AIR NODE,Air,0
 Node,726,ZONE OFFICE WHOLEBUILDING - LG OFFICE A END_B - STORY MID15 ZONE AIR NODE,Air,0
 Node,727,ZONE OFFICE WHOLEBUILDING - LG OFFICE A END_B - STORY MID16 ZONE AIR NODE,Air,0
 Node,728,ZONE OFFICE WHOLEBUILDING - LG OFFICE A END_B - STORY MID17 ZONE AIR NODE,Air,0
 Node,729,ZONE OFFICE WHOLEBUILDING - LG OFFICE A END_B - STORY MID18 ZONE AIR NODE,Air,0
 Node,730,ZONE OFFICE WHOLEBUILDING - LG OFFICE A END_B - STORY MID2 ZONE AIR NODE,Air,0
 Node,731,ZONE OFFICE WHOLEBUILDING - LG OFFICE A END_B - STORY MID3 ZONE AIR NODE,Air,0
 Node,732,ZONE OFFICE WHOLEBUILDING - LG OFFICE A END_B - STORY MID4 ZONE AIR NODE,Air,0
 Node,733,ZONE OFFICE WHOLEBUILDING - LG OFFICE A END_B - STORY MID5 ZONE AIR NODE,Air,0
 Node,734,ZONE OFFICE WHOLEBUILDING - LG OFFICE A END_B - STORY MID6 ZONE AIR NODE,Air,0
 Node,735,ZONE OFFICE WHOLEBUILDING - LG OFFICE A END_B - STORY MID7 ZONE AIR NODE,Air,0
 Node,736,ZONE OFFICE WHOLEBUILDING - LG OFFICE A END_B - STORY MID8 ZONE AIR NODE,Air,0
 Node,737,ZONE OFFICE WHOLEBUILDING - LG OFFICE A END_B - STORY MID9 ZONE AIR NODE,Air,0
 Node,738,ZONE OFFICE WHOLEBUILDING - LG OFFICE A END_B - STORY TOP ZONE AIR NODE,Air,0
 Node,739,ZONE OFFICE WHOLEBUILDING - LG OFFICE B  - STORY GROUND ZONE AIR NODE,Air,0
 Node,740,ZONE OFFICE WHOLEBUILDING - LG OFFICE B  - STORY MID ZONE AIR NODE,Air,0
 Node,741,ZONE OFFICE WHOLEBUILDING - LG OFFICE B  - STORY MID10 ZONE AIR NODE,Air,0
 Node,742,ZONE OFFICE WHOLEBUILDING - LG OFFICE B  - STORY MID11 ZONE AIR NODE,Air,0
 Node,743,ZONE OFFICE WHOLEBUILDING - LG OFFICE B  - STORY MID12 ZONE AIR NODE,Air,0
 Node,744,ZONE OFFICE WHOLEBUILDING - LG OFFICE B  - STORY MID13 ZONE AIR NODE,Air,0
 Node,745,ZONE OFFICE WHOLEBUILDING - LG OFFICE B  - STORY MID14 ZONE AIR NODE,Air,0
 Node,746,ZONE OFFICE WHOLEBUILDING - LG OFFICE B  - STORY MID15 ZONE AIR NODE,Air,0
 Node,747,ZONE OFFICE WHOLEBUILDING - LG OFFICE B  - STORY MID16 ZONE AIR NODE,Air,0
 Node,748,ZONE OFFICE WHOLEBUILDING - LG OFFICE B  - STORY MID17 ZONE AIR NODE,Air,0
 Node,749,ZONE OFFICE WHOLEBUILDING - LG OFFICE B  - STORY MID18 ZONE AIR NODE,Air,0
 Node,750,ZONE OFFICE WHOLEBUILDING - LG OFFICE B  - STORY MID2 ZONE AIR NODE,Air,0
 Node,751,ZONE OFFICE WHOLEBUILDING - LG OFFICE B  - STORY MID3 ZONE AIR NODE,Air,0
 Node,752,ZONE OFFICE WHOLEBUILDING - LG OFFICE B  - STORY MID4 ZONE AIR NODE,Air,0
 Node,753,ZONE OFFICE WHOLEBUILDING - LG OFFICE B  - STORY MID5 ZONE AIR NODE,Air,0
 Node,754,ZONE OFFICE WHOLEBUILDING - LG OFFICE B  - STORY MID6 ZONE AIR NODE,Air,0
 Node,755,ZONE OFFICE WHOLEBUILDING - LG OFFICE B  - STORY MID7 ZONE AIR NODE,Air,0
 Node,756,ZONE OFFICE WHOLEBUILDING - LG OFFICE B  - STORY MID8 ZONE AIR NODE,Air,0
 Node,757,ZONE OFFICE WHOLEBUILDING - LG OFFICE B  - STORY MID9 ZONE AIR NODE,Air,0
 Node,758,ZONE OFFICE WHOLEBUILDING - LG OFFICE B  - STORY TOP ZONE AIR NODE,Air,0
 Node,759,ZONE OFFICE WHOLEBUILDING - LG OFFICE B END_A - STORY GROUND ZONE AIR NODE,Air,0
 Node,760,ZONE OFFICE WHOLEBUILDING - LG OFFICE B END_A - STORY MID ZONE AIR NODE,Air,0
 Node,761,ZONE OFFICE WHOLEBUILDING - LG OFFICE B END_A - STORY MID10 ZONE AIR NODE,Air,0
 Node,762,ZONE OFFICE WHOLEBUILDING - LG OFFICE B END_A - STORY MID11 ZONE AIR NODE,Air,0
 Node,763,ZONE OFFICE WHOLEBUILDING - LG OFFICE B END_A - STORY MID12 ZONE AIR NODE,Air,0
 Node,764,ZONE OFFICE WHOLEBUILDING - LG OFFICE B END_A - STORY MID13 ZONE AIR NODE,Air,0
 Node,765,ZONE OFFICE WHOLEBUILDING - LG OFFICE B END_A - STORY MID14 ZONE AIR NODE,Air,0
 Node,766,ZONE OFFICE WHOLEBUILDING - LG OFFICE B END_A - STORY MID15 ZONE AIR NODE,Air,0
 Node,767,ZONE OFFICE WHOLEBUILDING - LG OFFICE B END_A - STORY MID16 ZONE AIR NODE,Air,0
 Node,768,ZONE OFFICE WHOLEBUILDING - LG OFFICE B END_A - STORY MID17 ZONE AIR NODE,Air,0
 Node,769,ZONE OFFICE WHOLEBUILDING - LG OFFICE B END_A - STORY MID18 ZONE AIR NODE,Air,0
 Node,770,ZONE OFFICE WHOLEBUILDING - LG OFFICE B END_A - STORY MID2 ZONE AIR NODE,Air,0
 Node,771,ZONE OFFICE WHOLEBUILDING - LG OFFICE B END_A - STORY MID3 ZONE AIR NODE,Air,0
 Node,772,ZONE OFFICE WHOLEBUILDING - LG OFFICE B END_A - STORY MID4 ZONE AIR NODE,Air,0
 Node,773,ZONE OFFICE WHOLEBUILDING - LG OFFICE B END_A - STORY MID5 ZONE AIR NODE,Air,0
 Node,774,ZONE OFFICE WHOLEBUILDING - LG OFFICE B END_A - STORY MID6 ZONE AIR NODE,Air,0
 Node,775,ZONE OFFICE WHOLEBUILDING - LG OFFICE B END_A - STORY MID7 ZONE AIR NODE,Air,0
 Node,776,ZONE OFFICE WHOLEBUILDING - LG OFFICE B END_A - STORY MID8 ZONE AIR NODE,Air,0
 Node,777,ZONE OFFICE WHOLEBUILDING - LG OFFICE B END_A - STORY MID9 ZONE AIR NODE,Air,0
 Node,778,ZONE OFFICE WHOLEBUILDING - LG OFFICE B END_A - STORY TOP ZONE AIR NODE,Air,0
 Node,779,ZONE OFFICE WHOLEBUILDING - LG OFFICE B END_B - STORY GROUND ZONE AIR NODE,Air,0
 Node,780,ZONE OFFICE WHOLEBUILDING - LG OFFICE B END_B - STORY MID ZONE AIR NODE,Air,0
 Node,781,ZONE OFFICE WHOLEBUILDING - LG OFFICE B END_B - STORY MID10 ZONE AIR NODE,Air,0
 Node,782,ZONE OFFICE WHOLEBUILDING - LG OFFICE B END_B - STORY MID11 ZONE AIR NODE,Air,0
 Node,783,ZONE OFFICE WHOLEBUILDING - LG OFFICE B END_B - STORY MID12 ZONE AIR NODE,Air,0
 Node,784,ZONE OFFICE WHOLEBUILDING - LG OFFICE B END_B - STORY MID13 ZONE AIR NODE,Air,0
 Node,785,ZONE OFFICE WHOLEBUILDING - LG OFFICE B END_B - STORY MID14 ZONE AIR NODE,Air,0
 Node,786,ZONE OFFICE WHOLEBUILDING - LG OFFICE B END_B - STORY MID15 ZONE AIR NODE,Air,0
 Node,787,ZONE OFFICE WHOLEBUILDING - LG OFFICE B END_B - STORY MID16 ZONE AIR NODE,Air,0
 Node,788,ZONE OFFICE WHOLEBUILDING - LG OFFICE B END_B - STORY MID17 ZONE AIR NODE,Air,0
 Node,789,ZONE OFFICE WHOLEBUILDING - LG OFFICE B END_B - STORY MID18 ZONE AIR NODE,Air,0
 Node,790,ZONE OFFICE WHOLEBUILDING - LG OFFICE B END_B - STORY MID2 ZONE AIR NODE,Air,0
 Node,791,ZONE OFFICE WHOLEBUILDING - LG OFFICE B END_B - STORY MID3 ZONE AIR NODE,Air,0
 Node,792,ZONE OFFICE WHOLEBUILDING - LG OFFICE B END_B - STORY MID4 ZONE AIR NODE,Air,0
 Node,793,ZONE OFFICE WHOLEBUILDING - LG OFFICE B END_B - STORY MID5 ZONE AIR NODE,Air,0
 Node,794,ZONE OFFICE WHOLEBUILDING - LG OFFICE B END_B - STORY MID6 ZONE AIR NODE,Air,0
 Node,795,ZONE OFFICE WHOLEBUILDING - LG OFFICE B END_B - STORY MID7 ZONE AIR NODE,Air,0
 Node,796,ZONE OFFICE WHOLEBUILDING - LG OFFICE B END_B - STORY MID8 ZONE AIR NODE,Air,0
 Node,797,ZONE OFFICE WHOLEBUILDING - LG OFFICE B END_B - STORY MID9 ZONE AIR NODE,Air,0
 Node,798,ZONE OFFICE WHOLEBUILDING - LG OFFICE B END_B - STORY TOP ZONE AIR NODE,Air,0
 Node,799,ZONE OFFICE WHOLEBUILDING - LG OFFICE C  - STORY GROUND ZONE AIR NODE,Air,0
 Node,800,ZONE OFFICE WHOLEBUILDING - LG OFFICE C  - STORY MID ZONE AIR NODE,Air,0
 Node,801,ZONE OFFICE WHOLEBUILDING - LG OFFICE C  - STORY MID10 ZONE AIR NODE,Air,0
 Node,802,ZONE OFFICE WHOLEBUILDING - LG OFFICE C  - STORY MID11 ZONE AIR NODE,Air,0
 Node,803,ZONE OFFICE WHOLEBUILDING - LG OFFICE C  - STORY MID12 ZONE AIR NODE,Air,0
 Node,804,ZONE OFFICE WHOLEBUILDING - LG OFFICE C  - STORY MID13 ZONE AIR NODE,Air,0
 Node,805,ZONE OFFICE WHOLEBUILDING - LG OFFICE C  - STORY MID14 ZONE AIR NODE,Air,0
 Node,806,ZONE OFFICE WHOLEBUILDING - LG OFFICE C  - STORY MID15 ZONE AIR NODE,Air,0
 Node,807,ZONE OFFICE WHOLEBUILDING - LG OFFICE C  - STORY MID16 ZONE AIR NODE,Air,0
 Node,808,ZONE OFFICE WHOLEBUILDING - LG OFFICE C  - STORY MID17 ZONE AIR NODE,Air,0
 Node,809,ZONE OFFICE WHOLEBUILDING - LG OFFICE C  - STORY MID18 ZONE AIR NODE,Air,0
 Node,810,ZONE OFFICE WHOLEBUILDING - LG OFFICE C  - STORY MID2 ZONE AIR NODE,Air,0
 Node,811,ZONE OFFICE WHOLEBUILDING - LG OFFICE C  - STORY MID3 ZONE AIR NODE,Air,0
 Node,812,ZONE OFFICE WHOLEBUILDING - LG OFFICE C  - STORY MID4 ZONE AIR NODE,Air,0
 Node,813,ZONE OFFICE WHOLEBUILDING - LG OFFICE C  - STORY MID5 ZONE AIR NODE,Air,0
 Node,814,ZONE OFFICE WHOLEBUILDING - LG OFFICE C  - STORY MID6 ZONE AIR NODE,Air,0
 Node,815,ZONE OFFICE WHOLEBUILDING - LG OFFICE C  - STORY MID7 ZONE AIR NODE,Air,0
 Node,816,ZONE OFFICE WHOLEBUILDING - LG OFFICE C  - STORY MID8 ZONE AIR NODE,Air,0
 Node,817,ZONE OFFICE WHOLEBUILDING - LG OFFICE C  - STORY MID9 ZONE AIR NODE,Air,0
 Node,818,ZONE OFFICE WHOLEBUILDING - LG OFFICE C  - STORY TOP ZONE AIR NODE,Air,0
 Node,819,ZONE OFFICE WHOLEBUILDING - LG OFFICE C END_A - STORY GROUND ZONE AIR NODE,Air,0
 Node,820,ZONE OFFICE WHOLEBUILDING - LG OFFICE C END_A - STORY MID ZONE AIR NODE,Air,0
 Node,821,ZONE OFFICE WHOLEBUILDING - LG OFFICE C END_A - STORY MID10 ZONE AIR NODE,Air,0
 Node,822,ZONE OFFICE WHOLEBUILDING - LG OFFICE C END_A - STORY MID11 ZONE AIR NODE,Air,0
 Node,823,ZONE OFFICE WHOLEBUILDING - LG OFFICE C END_A - STORY MID12 ZONE AIR NODE,Air,0
 Node,824,ZONE OFFICE WHOLEBUILDING - LG OFFICE C END_A - STORY MID13 ZONE AIR NODE,Air,0
 Node,825,ZONE OFFICE WHOLEBUILDING - LG OFFICE C END_A - STORY MID14 ZONE AIR NODE,Air,0
 Node,826,ZONE OFFICE WHOLEBUILDING - LG OFFICE C END_A - STORY MID15 ZONE AIR NODE,Air,0
 Node,827,ZONE OFFICE WHOLEBUILDING - LG OFFICE C END_A - STORY MID16 ZONE AIR NODE,Air,0
 Node,828,ZONE OFFICE WHOLEBUILDING - LG OFFICE C END_A - STORY MID17 ZONE AIR NODE,Air,0
 Node,829,ZONE OFFICE WHOLEBUILDING - LG OFFICE C END_A - STORY MID18 ZONE AIR NODE,Air,0
 Node,830,ZONE OFFICE WHOLEBUILDING - LG OFFICE C END_A - STORY MID2 ZONE AIR NODE,Air,0
 Node,831,ZONE OFFICE WHOLEBUILDING - LG OFFICE C END_A - STORY MID3 ZONE AIR NODE,Air,0
 Node,832,ZONE OFFICE WHOLEBUILDING - LG OFFICE C END_A - STORY MID4 ZONE AIR NODE,Air,0
 Node,833,ZONE OFFICE WHOLEBUILDING - LG OFFICE C END_A - STORY MID5 ZONE AIR NODE,Air,0
 Node,834,ZONE OFFICE WHOLEBUILDING - LG OFFICE C END_A - STORY MID6 ZONE AIR NODE,Air,0
 Node,835,ZONE OFFICE WHOLEBUILDING - LG OFFICE C END_A - STORY MID7 ZONE AIR NODE,Air,0
 Node,836,ZONE OFFICE WHOLEBUILDING - LG OFFICE C END_A - STORY MID8 ZONE AIR NODE,Air,0
 Node,837,ZONE OFFICE WHOLEBUILDING - LG OFFICE C END_A - STORY MID9 ZONE AIR NODE,Air,0
 Node,838,ZONE OFFICE WHOLEBUILDING - LG OFFICE C END_A - STORY TOP ZONE AIR NODE,Air,0
 Node,839,ZONE OFFICE WHOLEBUILDING - LG OFFICE C END_B - STORY GROUND ZONE AIR NODE,Air,0
 Node,840,ZONE OFFICE WHOLEBUILDING - LG OFFICE C END_B - STORY MID ZONE AIR NODE,Air,0
 Node,841,ZONE OFFICE WHOLEBUILDING - LG OFFICE C END_B - STORY MID10 ZONE AIR NODE,Air,0
 Node,842,ZONE OFFICE WHOLEBUILDING - LG OFFICE C END_B - STORY MID11 ZONE AIR NODE,Air,0
 Node,843,ZONE OFFICE WHOLEBUILDING - LG OFFICE C END_B - STORY MID12 ZONE AIR NODE,Air,0
 Node,844,ZONE OFFICE WHOLEBUILDING - LG OFFICE C END_B - STORY MID13 ZONE AIR NODE,Air,0
 Node,845,ZONE OFFICE WHOLEBUILDING - LG OFFICE C END_B - STORY MID14 ZONE AIR NODE,Air,0
 Node,846,ZONE OFFICE WHOLEBUILDING - LG OFFICE C END_B - STORY MID15 ZONE AIR NODE,Air,0
 Node,847,ZONE OFFICE WHOLEBUILDING - LG OFFICE C END_B - STORY MID16 ZONE AIR NODE,Air,0
 Node,848,ZONE OFFICE WHOLEBUILDING - LG OFFICE C END_B - STORY MID17 ZONE AIR NODE,Air,0
 Node,849,ZONE OFFICE WHOLEBUILDING - LG OFFICE C END_B - STORY MID18 ZONE AIR NODE,Air,0
 Node,850,ZONE OFFICE WHOLEBUILDING - LG OFFICE C END_B - STORY MID2 ZONE AIR NODE,Air,0
 Node,851,ZONE OFFICE WHOLEBUILDING - LG OFFICE C END_B - STORY MID3 ZONE AIR NODE,Air,0
 Node,852,ZONE OFFICE WHOLEBUILDING - LG OFFICE C END_B - STORY MID4 ZONE AIR NODE,Air,0
 Node,853,ZONE OFFICE WHOLEBUILDING - LG OFFICE C END_B - STORY MID5 ZONE AIR NODE,Air,0
 Node,854,ZONE OFFICE WHOLEBUILDING - LG OFFICE C END_B - STORY MID6 ZONE AIR NODE,Air,0
 Node,855,ZONE OFFICE WHOLEBUILDING - LG OFFICE C END_B - STORY MID7 ZONE AIR NODE,Air,0
 Node,856,ZONE OFFICE WHOLEBUILDING - LG OFFICE C END_B - STORY MID8 ZONE AIR NODE,Air,0
 Node,857,ZONE OFFICE WHOLEBUILDING - LG OFFICE C END_B - STORY MID9 ZONE AIR NODE,Air,0
 Node,858,ZONE OFFICE WHOLEBUILDING - LG OFFICE C END_B - STORY TOP ZONE AIR NODE,Air,0
 Node,859,9 ZONE PVAV WITH PFP BOXES AND REHEAT DEMAND OUTLET NODE,Air,2
 Node,860,9 ZONE PVAV WITH PFP BOXES AND REHEAT 1 DEMAND OUTLET NODE,Air,2
 Node,861,9 ZONE PVAV WITH PFP BOXES AND REHEAT 10 DEMAND OUTLET NODE,Air,2
 Node,862,9 ZONE PVAV WITH PFP BOXES AND REHEAT 11 DEMAND OUTLET NODE,Air,2
 Node,863,9 ZONE PVAV WITH PFP BOXES AND REHEAT 12 DEMAND OUTLET NODE,Air,2
 Node,864,9 ZONE PVAV WITH PFP BOXES AND REHEAT 13 DEMAND OUTLET NODE,Air,2
 Node,865,9 ZONE PVAV WITH PFP BOXES AND REHEAT 14 DEMAND OUTLET NODE,Air,2
 Node,866,9 ZONE PVAV WITH PFP BOXES AND REHEAT 15 DEMAND OUTLET NODE,Air,2
 Node,867,9 ZONE PVAV WITH PFP BOXES AND REHEAT 16 DEMAND OUTLET NODE,Air,2
 Node,868,9 ZONE PVAV WITH PFP BOXES AND REHEAT 17 DEMAND OUTLET NODE,Air,2
 Node,869,9 ZONE PVAV WITH PFP BOXES AND REHEAT 18 DEMAND OUTLET NODE,Air,2
 Node,870,9 ZONE PVAV WITH PFP BOXES AND REHEAT 19 DEMAND OUTLET NODE,Air,2
 Node,871,9 ZONE PVAV WITH PFP BOXES AND REHEAT 2 DEMAND OUTLET NODE,Air,2
 Node,872,9 ZONE PVAV WITH PFP BOXES AND REHEAT 3 DEMAND OUTLET NODE,Air,2
 Node,873,9 ZONE PVAV WITH PFP BOXES AND REHEAT 4 DEMAND OUTLET NODE,Air,2
 Node,874,9 ZONE PVAV WITH PFP BOXES AND REHEAT 5 DEMAND OUTLET NODE,Air,2
 Node,875,9 ZONE PVAV WITH PFP BOXES AND REHEAT 6 DEMAND OUTLET NODE,Air,2
 Node,876,9 ZONE PVAV WITH PFP BOXES AND REHEAT 7 DEMAND OUTLET NODE,Air,2
 Node,877,9 ZONE PVAV WITH PFP BOXES AND REHEAT 8 DEMAND OUTLET NODE,Air,2
 Node,878,9 ZONE PVAV WITH PFP BOXES AND REHEAT 9 DEMAND OUTLET NODE,Air,2
 Node,879,9 ZONE PVAV WITH PFP BOXES AND REHEAT OUTDOOR AIR NODE,Air,2
 Node,880,9 ZONE PVAV WITH PFP BOXES AND REHEAT 1 OUTDOOR AIR NODE,Air,2
 Node,881,9 ZONE PVAV WITH PFP BOXES AND REHEAT 10 OUTDOOR AIR NODE,Air,2
 Node,882,9 ZONE PVAV WITH PFP BOXES AND REHEAT 11 OUTDOOR AIR NODE,Air,2
 Node,883,9 ZONE PVAV WITH PFP BOXES AND REHEAT 12 OUTDOOR AIR NODE,Air,2
 Node,884,9 ZONE PVAV WITH PFP BOXES AND REHEAT 13 OUTDOOR AIR NODE,Air,2
 Node,885,9 ZONE PVAV WITH PFP BOXES AND REHEAT 14 OUTDOOR AIR NODE,Air,2
 Node,886,9 ZONE PVAV WITH PFP BOXES AND REHEAT 15 OUTDOOR AIR NODE,Air,2
 Node,887,9 ZONE PVAV WITH PFP BOXES AND REHEAT 16 OUTDOOR AIR NODE,Air,2
 Node,888,9 ZONE PVAV WITH PFP BOXES AND REHEAT 17 OUTDOOR AIR NODE,Air,2
 Node,889,9 ZONE PVAV WITH PFP BOXES AND REHEAT 18 OUTDOOR AIR NODE,Air,2
 Node,890,9 ZONE PVAV WITH PFP BOXES AND REHEAT 19 OUTDOOR AIR NODE,Air,2
 Node,891,9 ZONE PVAV WITH PFP BOXES AND REHEAT 2 OUTDOOR AIR NODE,Air,2
 Node,892,9 ZONE PVAV WITH PFP BOXES AND REHEAT 3 OUTDOOR AIR NODE,Air,2
 Node,893,9 ZONE PVAV WITH PFP BOXES AND REHEAT 4 OUTDOOR AIR NODE,Air,2
 Node,894,9 ZONE PVAV WITH PFP BOXES AND REHEAT 5 OUTDOOR AIR NODE,Air,2
 Node,895,9 ZONE PVAV WITH PFP BOXES AND REHEAT 6 OUTDOOR AIR NODE,Air,2
 Node,896,9 ZONE PVAV WITH PFP BOXES AND REHEAT 7 OUTDOOR AIR NODE,Air,2
 Node,897,9 ZONE PVAV WITH PFP BOXES AND REHEAT 8 OUTDOOR AIR NODE,Air,2
 Node,898,9 ZONE PVAV WITH PFP BOXES AND REHEAT 9 OUTDOOR AIR NODE,Air,2
 Node,899,MODEL OUTDOOR AIR NODE,Air,0
 Node,900,ZONE OFFICE WHOLEBUILDING - LG OFFICE A  - STORY GROUND PFP TERM INLET AIR NODE,Air,2
 Node,901,ZONE OFFICE WHOLEBUILDING - LG OFFICE A END_A - STORY GROUND PFP TERM INLET AIR NODE,Air,2
 Node,902,ZONE OFFICE WHOLEBUILDING - LG OFFICE A END_B - STORY GROUND PFP TERM INLET AIR NODE,Air,2
 Node,903,ZONE OFFICE WHOLEBUILDING - LG OFFICE B  - STORY GROUND PFP TERM INLET AIR NODE,Air,2
 Node,904,ZONE OFFICE WHOLEBUILDING - LG OFFICE B END_A - STORY GROUND PFP TERM INLET AIR NODE,Air,2
 Node,905,ZONE OFFICE WHOLEBUILDING - LG OFFICE B END_B - STORY GROUND PFP TERM INLET AIR NODE,Air,2
 Node,906,ZONE OFFICE WHOLEBUILDING - LG OFFICE C  - STORY GROUND PFP TERM INLET AIR NODE,Air,2
 Node,907,ZONE OFFICE WHOLEBUILDING - LG OFFICE C END_A - STORY GROUND PFP TERM INLET AIR NODE,Air,2
 Node,908,ZONE OFFICE WHOLEBUILDING - LG OFFICE C END_B - STORY GROUND PFP TERM INLET AIR NODE,Air,2
 Node,909,ZONE OFFICE WHOLEBUILDING - LG OFFICE A  - STORY MID PFP TERM INLET AIR NODE,Air,2
 Node,910,ZONE OFFICE WHOLEBUILDING - LG OFFICE A END_A - STORY MID PFP TERM INLET AIR NODE,Air,2
 Node,911,ZONE OFFICE WHOLEBUILDING - LG OFFICE A END_B - STORY MID PFP TERM INLET AIR NODE,Air,2
 Node,912,ZONE OFFICE WHOLEBUILDING - LG OFFICE B  - STORY MID PFP TERM INLET AIR NODE,Air,2
 Node,913,ZONE OFFICE WHOLEBUILDING - LG OFFICE B END_A - STORY MID PFP TERM INLET AIR NODE,Air,2
 Node,914,ZONE OFFICE WHOLEBUILDING - LG OFFICE B END_B - STORY MID PFP TERM INLET AIR NODE,Air,2
 Node,915,ZONE OFFICE WHOLEBUILDING - LG OFFICE C  - STORY MID PFP TERM INLET AIR NODE,Air,2
 Node,916,ZONE OFFICE WHOLEBUILDING - LG OFFICE C END_A - STORY MID PFP TERM INLET AIR NODE,Air,2
 Node,917,ZONE OFFICE WHOLEBUILDING - LG OFFICE C END_B - STORY MID PFP TERM INLET AIR NODE,Air,2
 Node,918,ZONE OFFICE WHOLEBUILDING - LG OFFICE A  - STORY MID18 PFP TERM INLET AIR NODE,Air,2
 Node,919,ZONE OFFICE WHOLEBUILDING - LG OFFICE A END_A - STORY MID18 PFP TERM INLET AIR NODE,Air,2
 Node,920,ZONE OFFICE WHOLEBUILDING - LG OFFICE A END_B - STORY MID18 PFP TERM INLET AIR NODE,Air,2
 Node,921,ZONE OFFICE WHOLEBUILDING - LG OFFICE B  - STORY MID18 PFP TERM INLET AIR NODE,Air,2
 Node,922,ZONE OFFICE WHOLEBUILDING - LG OFFICE B END_A - STORY MID18 PFP TERM INLET AIR NODE,Air,2
 Node,923,ZONE OFFICE WHOLEBUILDING - LG OFFICE B END_B - STORY MID18 PFP TERM INLET AIR NODE,Air,2
 Node,924,ZONE OFFICE WHOLEBUILDING - LG OFFICE C  - STORY MID18 PFP TERM INLET AIR NODE,Air,2
 Node,925,ZONE OFFICE WHOLEBUILDING - LG OFFICE C END_A - STORY MID18 PFP TERM INLET AIR NODE,Air,2
 Node,926,ZONE OFFICE WHOLEBUILDING - LG OFFICE C END_B - STORY MID18 PFP TERM INLET AIR NODE,Air,2
 Node,927,ZONE OFFICE WHOLEBUILDING - LG OFFICE A  - STORY MID2 PFP TERM INLET AIR NODE,Air,2
 Node,928,ZONE OFFICE WHOLEBUILDING - LG OFFICE A END_A - STORY MID2 PFP TERM INLET AIR NODE,Air,2
 Node,929,ZONE OFFICE WHOLEBUILDING - LG OFFICE A END_B - STORY MID2 PFP TERM INLET AIR NODE,Air,2
 Node,930,ZONE OFFICE WHOLEBUILDING - LG OFFICE B  - STORY MID2 PFP TERM INLET AIR NODE,Air,2
 Node,931,ZONE OFFICE WHOLEBUILDING - LG OFFICE B END_A - STORY MID2 PFP TERM INLET AIR NODE,Air,2
 Node,932,ZONE OFFICE WHOLEBUILDING - LG OFFICE B END_B - STORY MID2 PFP TERM INLET AIR NODE,Air,2
 Node,933,ZONE OFFICE WHOLEBUILDING - LG OFFICE C  - STORY MID2 PFP TERM INLET AIR NODE,Air,2
 Node,934,ZONE OFFICE WHOLEBUILDING - LG OFFICE C END_A - STORY MID2 PFP TERM INLET AIR NODE,Air,2
 Node,935,ZONE OFFICE WHOLEBUILDING - LG OFFICE C END_B - STORY MID2 PFP TERM INLET AIR NODE,Air,2
 Node,936,ZONE OFFICE WHOLEBUILDING - LG OFFICE A  - STORY MID3 PFP TERM INLET AIR NODE,Air,2
 Node,937,ZONE OFFICE WHOLEBUILDING - LG OFFICE A END_A - STORY MID3 PFP TERM INLET AIR NODE,Air,2
 Node,938,ZONE OFFICE WHOLEBUILDING - LG OFFICE A END_B - STORY MID3 PFP TERM INLET AIR NODE,Air,2
 Node,939,ZONE OFFICE WHOLEBUILDING - LG OFFICE B  - STORY MID3 PFP TERM INLET AIR NODE,Air,2
 Node,940,ZONE OFFICE WHOLEBUILDING - LG OFFICE B END_A - STORY MID3 PFP TERM INLET AIR NODE,Air,2
 Node,941,ZONE OFFICE WHOLEBUILDING - LG OFFICE B END_B - STORY MID3 PFP TERM INLET AIR NODE,Air,2
 Node,942,ZONE OFFICE WHOLEBUILDING - LG OFFICE C  - STORY MID3 PFP TERM INLET AIR NODE,Air,2
 Node,943,ZONE OFFICE WHOLEBUILDING - LG OFFICE C END_A - STORY MID3 PFP TERM INLET AIR NODE,Air,2
 Node,944,ZONE OFFICE WHOLEBUILDING - LG OFFICE C END_B - STORY MID3 PFP TERM INLET AIR NODE,Air,2
 Node,945,ZONE OFFICE WHOLEBUILDING - LG OFFICE A  - STORY MID4 PFP TERM INLET AIR NODE,Air,2
 Node,946,ZONE OFFICE WHOLEBUILDING - LG OFFICE A END_A - STORY MID4 PFP TERM INLET AIR NODE,Air,2
 Node,947,ZONE OFFICE WHOLEBUILDING - LG OFFICE A END_B - STORY MID4 PFP TERM INLET AIR NODE,Air,2
 Node,948,ZONE OFFICE WHOLEBUILDING - LG OFFICE B  - STORY MID4 PFP TERM INLET AIR NODE,Air,2
 Node,949,ZONE OFFICE WHOLEBUILDING - LG OFFICE B END_A - STORY MID4 PFP TERM INLET AIR NODE,Air,2
 Node,950,ZONE OFFICE WHOLEBUILDING - LG OFFICE B END_B - STORY MID4 PFP TERM INLET AIR NODE,Air,2
 Node,951,ZONE OFFICE WHOLEBUILDING - LG OFFICE C  - STORY MID4 PFP TERM INLET AIR NODE,Air,2
 Node,952,ZONE OFFICE WHOLEBUILDING - LG OFFICE C END_A - STORY MID4 PFP TERM INLET AIR NODE,Air,2
 Node,953,ZONE OFFICE WHOLEBUILDING - LG OFFICE C END_B - STORY MID4 PFP TERM INLET AIR NODE,Air,2
 Node,954,ZONE OFFICE WHOLEBUILDING - LG OFFICE A  - STORY MID5 PFP TERM INLET AIR NODE,Air,2
 Node,955,ZONE OFFICE WHOLEBUILDING - LG OFFICE A END_A - STORY MID5 PFP TERM INLET AIR NODE,Air,2
 Node,956,ZONE OFFICE WHOLEBUILDING - LG OFFICE A END_B - STORY MID5 PFP TERM INLET AIR NODE,Air,2
 Node,957,ZONE OFFICE WHOLEBUILDING - LG OFFICE B  - STORY MID5 PFP TERM INLET AIR NODE,Air,2
 Node,958,ZONE OFFICE WHOLEBUILDING - LG OFFICE B END_A - STORY MID5 PFP TERM INLET AIR NODE,Air,2
 Node,959,ZONE OFFICE WHOLEBUILDING - LG OFFICE B END_B - STORY MID5 PFP TERM INLET AIR NODE,Air,2
 Node,960,ZONE OFFICE WHOLEBUILDING - LG OFFICE C  - STORY MID5 PFP TERM INLET AIR NODE,Air,2
 Node,961,ZONE OFFICE WHOLEBUILDING - LG OFFICE C END_A - STORY MID5 PFP TERM INLET AIR NODE,Air,2
 Node,962,ZONE OFFICE WHOLEBUILDING - LG OFFICE C END_B - STORY MID5 PFP TERM INLET AIR NODE,Air,2
 Node,963,ZONE OFFICE WHOLEBUILDING - LG OFFICE A  - STORY MID6 PFP TERM INLET AIR NODE,Air,2
 Node,964,ZONE OFFICE WHOLEBUILDING - LG OFFICE A END_A - STORY MID6 PFP TERM INLET AIR NODE,Air,2
 Node,965,ZONE OFFICE WHOLEBUILDING - LG OFFICE A END_B - STORY MID6 PFP TERM INLET AIR NODE,Air,2
 Node,966,ZONE OFFICE WHOLEBUILDING - LG OFFICE B  - STORY MID6 PFP TERM INLET AIR NODE,Air,2
 Node,967,ZONE OFFICE WHOLEBUILDING - LG OFFICE B END_A - STORY MID6 PFP TERM INLET AIR NODE,Air,2
 Node,968,ZONE OFFICE WHOLEBUILDING - LG OFFICE B END_B - STORY MID6 PFP TERM INLET AIR NODE,Air,2
 Node,969,ZONE OFFICE WHOLEBUILDING - LG OFFICE C  - STORY MID6 PFP TERM INLET AIR NODE,Air,2
 Node,970,ZONE OFFICE WHOLEBUILDING - LG OFFICE C END_A - STORY MID6 PFP TERM INLET AIR NODE,Air,2
 Node,971,ZONE OFFICE WHOLEBUILDING - LG OFFICE C END_B - STORY MID6 PFP TERM INLET AIR NODE,Air,2
 Node,972,ZONE OFFICE WHOLEBUILDING - LG OFFICE A  - STORY MID7 PFP TERM INLET AIR NODE,Air,2
 Node,973,ZONE OFFICE WHOLEBUILDING - LG OFFICE A END_A - STORY MID7 PFP TERM INLET AIR NODE,Air,2
 Node,974,ZONE OFFICE WHOLEBUILDING - LG OFFICE A END_B - STORY MID7 PFP TERM INLET AIR NODE,Air,2
 Node,975,ZONE OFFICE WHOLEBUILDING - LG OFFICE B  - STORY MID7 PFP TERM INLET AIR NODE,Air,2
 Node,976,ZONE OFFICE WHOLEBUILDING - LG OFFICE B END_A - STORY MID7 PFP TERM INLET AIR NODE,Air,2
 Node,977,ZONE OFFICE WHOLEBUILDING - LG OFFICE B END_B - STORY MID7 PFP TERM INLET AIR NODE,Air,2
 Node,978,ZONE OFFICE WHOLEBUILDING - LG OFFICE C  - STORY MID7 PFP TERM INLET AIR NODE,Air,2
 Node,979,ZONE OFFICE WHOLEBUILDING - LG OFFICE C END_A - STORY MID7 PFP TERM INLET AIR NODE,Air,2
 Node,980,ZONE OFFICE WHOLEBUILDING - LG OFFICE C END_B - STORY MID7 PFP TERM INLET AIR NODE,Air,2
 Node,981,ZONE OFFICE WHOLEBUILDING - LG OFFICE A  - STORY MID8 PFP TERM INLET AIR NODE,Air,2
 Node,982,ZONE OFFICE WHOLEBUILDING - LG OFFICE A END_A - STORY MID8 PFP TERM INLET AIR NODE,Air,2
 Node,983,ZONE OFFICE WHOLEBUILDING - LG OFFICE A END_B - STORY MID8 PFP TERM INLET AIR NODE,Air,2
 Node,984,ZONE OFFICE WHOLEBUILDING - LG OFFICE B  - STORY MID8 PFP TERM INLET AIR NODE,Air,2
 Node,985,ZONE OFFICE WHOLEBUILDING - LG OFFICE B END_A - STORY MID8 PFP TERM INLET AIR NODE,Air,2
 Node,986,ZONE OFFICE WHOLEBUILDING - LG OFFICE B END_B - STORY MID8 PFP TERM INLET AIR NODE,Air,2
 Node,987,ZONE OFFICE WHOLEBUILDING - LG OFFICE C  - STORY MID8 PFP TERM INLET AIR NODE,Air,2
 Node,988,ZONE OFFICE WHOLEBUILDING - LG OFFICE C END_A - STORY MID8 PFP TERM INLET AIR NODE,Air,2
 Node,989,ZONE OFFICE WHOLEBUILDING - LG OFFICE C END_B - STORY MID8 PFP TERM INLET AIR NODE,Air,2
 Node,990,ZONE OFFICE WHOLEBUILDING - LG OFFICE A  - STORY MID9 PFP TERM INLET AIR NODE,Air,2
 Node,991,ZONE OFFICE WHOLEBUILDING - LG OFFICE A END_A - STORY MID9 PFP TERM INLET AIR NODE,Air,2
 Node,992,ZONE OFFICE WHOLEBUILDING - LG OFFICE A END_B - STORY MID9 PFP TERM INLET AIR NODE,Air,2
 Node,993,ZONE OFFICE WHOLEBUILDING - LG OFFICE B  - STORY MID9 PFP TERM INLET AIR NODE,Air,2
 Node,994,ZONE OFFICE WHOLEBUILDING - LG OFFICE B END_A - STORY MID9 PFP TERM INLET AIR NODE,Air,2
 Node,995,ZONE OFFICE WHOLEBUILDING - LG OFFICE B END_B - STORY MID9 PFP TERM INLET AIR NODE,Air,2
 Node,996,ZONE OFFICE WHOLEBUILDING - LG OFFICE C  - STORY MID9 PFP TERM INLET AIR NODE,Air,2
 Node,997,ZONE OFFICE WHOLEBUILDING - LG OFFICE C END_A - STORY MID9 PFP TERM INLET AIR NODE,Air,2
 Node,998,ZONE OFFICE WHOLEBUILDING - LG OFFICE C END_B - STORY MID9 PFP TERM INLET AIR NODE,Air,2
 Node,999,ZONE OFFICE WHOLEBUILDING - LG OFFICE A  - STORY TOP PFP TERM INLET AIR NODE,Air,2
 Node,1000,ZONE OFFICE WHOLEBUILDING - LG OFFICE A END_A - STORY TOP PFP TERM INLET AIR NODE,Air,2
 Node,1001,ZONE OFFICE WHOLEBUILDING - LG OFFICE A END_B - STORY TOP PFP TERM INLET AIR NODE,Air,2
 Node,1002,ZONE OFFICE WHOLEBUILDING - LG OFFICE B  - STORY TOP PFP TERM INLET AIR NODE,Air,2
 Node,1003,ZONE OFFICE WHOLEBUILDING - LG OFFICE B END_A - STORY TOP PFP TERM INLET AIR NODE,Air,2
 Node,1004,ZONE OFFICE WHOLEBUILDING - LG OFFICE B END_B - STORY TOP PFP TERM INLET AIR NODE,Air,2
 Node,1005,ZONE OFFICE WHOLEBUILDING - LG OFFICE C  - STORY TOP PFP TERM INLET AIR NODE,Air,2
 Node,1006,ZONE OFFICE WHOLEBUILDING - LG OFFICE C END_A - STORY TOP PFP TERM INLET AIR NODE,Air,2
 Node,1007,ZONE OFFICE WHOLEBUILDING - LG OFFICE C END_B - STORY TOP PFP TERM INLET AIR NODE,Air,2
 Node,1008,ZONE OFFICE WHOLEBUILDING - LG OFFICE A  - STORY MID10 PFP TERM INLET AIR NODE,Air,2
 Node,1009,ZONE OFFICE WHOLEBUILDING - LG OFFICE A END_A - STORY MID10 PFP TERM INLET AIR NODE,Air,2
 Node,1010,ZONE OFFICE WHOLEBUILDING - LG OFFICE A END_B - STORY MID10 PFP TERM INLET AIR NODE,Air,2
 Node,1011,ZONE OFFICE WHOLEBUILDING - LG OFFICE B  - STORY MID10 PFP TERM INLET AIR NODE,Air,2
 Node,1012,ZONE OFFICE WHOLEBUILDING - LG OFFICE B END_A - STORY MID10 PFP TERM INLET AIR NODE,Air,2
 Node,1013,ZONE OFFICE WHOLEBUILDING - LG OFFICE B END_B - STORY MID10 PFP TERM INLET AIR NODE,Air,2
 Node,1014,ZONE OFFICE WHOLEBUILDING - LG OFFICE C  - STORY MID10 PFP TERM INLET AIR NODE,Air,2
 Node,1015,ZONE OFFICE WHOLEBUILDING - LG OFFICE C END_A - STORY MID10 PFP TERM INLET AIR NODE,Air,2
 Node,1016,ZONE OFFICE WHOLEBUILDING - LG OFFICE C END_B - STORY MID10 PFP TERM INLET AIR NODE,Air,2
[...]
 Non-Parent Node Connection,9 ZONE PVAV WITH PFP BOXES AND REHEAT 11 OUTDOOR AIR NODE,CONTROLLER:OUTDOORAIR,9 ZONE PVAV WITH PFP BOXES AND REHEAT 11 OA CONTROLLER,Actuator,1
 Non-Parent Node Connection,9 ZONE PVAV WITH PFP BOXES AND REHEAT 11 RELIEF AIR NODE,CONTROLLER:OUTDOORAIR,9 ZONE PVAV WITH PFP BOXES AND REHEAT 11 OA CONTROLLER,Actuator,1
 Non-Parent Node Connection,9 ZONE PVAV WITH PFP BOXES AND REHEAT 11 SUPPLY INLET NODE,CONTROLLER:OUTDOORAIR,9 ZONE PVAV WITH PFP BOXES AND REHEAT 11 OA CONTROLLER,Sensor,1
 Non-Parent Node Connection,9 ZONE PVAV WITH PFP BOXES AND REHEAT 12 MIXED AIR NODE,CONTROLLER:OUTDOORAIR,9 ZONE PVAV WITH PFP BOXES AND REHEAT 12 OA CONTROLLER,Sensor,1
 Non-Parent Node Connection,9 ZONE PVAV WITH PFP BOXES AND REHEAT 12 OUTDOOR AIR NODE,CONTROLLER:OUTDOORAIR,9 ZONE PVAV WITH PFP BOXES AND REHEAT 12 OA CONTROLLER,Actuator,1
 Non-Parent Node Connection,9 ZONE PVAV WITH PFP BOXES AND REHEAT 12 RELIEF AIR NODE,CONTROLLER:OUTDOORAIR,9 ZONE PVAV WITH PFP BOXES AND REHEAT 12 OA CONTROLLER,Actuator,1
 Non-Parent Node Connection,9 ZONE PVAV WITH PFP BOXES AND REHEAT 12 SUPPLY INLET NODE,CONTROLLER:OUTDOORAIR,9 ZONE PVAV WITH PFP BOXES AND REHEAT 12 OA CONTROLLER,Sensor,1
 Non-Parent Node Connection,9 ZONE PVAV WITH PFP BOXES AND REHEAT 13 MIXED AIR NODE,CONTROLLER:OUTDOORAIR,9 ZONE PVAV WITH PFP BOXES AND REHEAT 13 OA CONTROLLER,Sensor,1
 Non-Parent Node Connection,9 ZONE PVAV WITH PFP BOXES AND REHEAT 13 OUTDOOR AIR NODE,CONTROLLER:OUTDOORAIR,9 ZONE PVAV WITH PFP BOXES AND REHEAT 13 OA CONTROLLER,Actuator,1
 Non-Parent Node Connection,9 ZONE PVAV WITH PFP BOXES AND REHEAT 13 RELIEF AIR NODE,CONTROLLER:OUTDOORAIR,9 ZONE PVAV WITH PFP BOXES AND REHEAT 13 OA CONTROLLER,Actuator,1
 Non-Parent Node Connection,9 ZONE PVAV WITH PFP BOXES AND REHEAT 13 SUPPLY INLET NODE,CONTROLLER:OUTDOORAIR,9 ZONE PVAV WITH PFP BOXES AND REHEAT 13 OA CONTROLLER,Sensor,1
 Non-Parent Node Connection,9 ZONE PVAV WITH PFP BOXES AND REHEAT 14 MIXED AIR NODE,CONTROLLER:OUTDOORAIR,9 ZONE PVAV WITH PFP BOXES AND REHEAT 14 OA CONTROLLER,Sensor,1
 Non-Parent Node Connection,9 ZONE PVAV WITH PFP BOXES AND REHEAT 14 OUTDOOR AIR NODE,CONTROLLER:OUTDOORAIR,9 ZONE PVAV WITH PFP BOXES AND REHEAT 14 OA CONTROLLER,Actuator,1
 Non-Parent Node Connection,9 ZONE PVAV WITH PFP BOXES AND REHEAT 14 RELIEF AIR NODE,CONTROLLER:OUTDOORAIR,9 ZONE PVAV WITH PFP BOXES AND REHEAT 14 OA CONTROLLER,Actuator,1
 Non-Parent Node Connection,9 ZONE PVAV WITH PFP BOXES AND REHEAT 14 SUPPLY INLET NODE,CONTROLLER:OUTDOORAIR,9 ZONE PVAV WITH PFP BOXES AND REHEAT 14 OA CONTROLLER,Sensor,1
 Non-Parent Node Connection,9 ZONE PVAV WITH PFP BOXES AND REHEAT 15 MIXED AIR NODE,CONTROLLER:OUTDOORAIR,9 ZONE PVAV WITH PFP BOXES AND REHEAT 15 OA CONTROLLER,Sensor,1
 Non-Parent Node Connection,9 ZONE PVAV WITH PFP BOXES AND REHEAT 15 OUTDOOR AIR NODE,CONTROLLER:OUTDOORAIR,9 ZONE PVAV WITH PFP BOXES AND REHEAT 15 OA CONTROLLER,Actuator,1
 Non-Parent Node Connection,9 ZONE PVAV WITH PFP BOXES AND REHEAT 15 RELIEF AIR NODE,CONTROLLER:OUTDOORAIR,9 ZONE PVAV WITH PFP BOXES AND REHEAT 15 OA CONTROLLER,Actuator,1
 Non-Parent Node Connection,9 ZONE PVAV WITH PFP BOXES AND REHEAT 15 SUPPLY INLET NODE,CONTROLLER:OUTDOORAIR,9 ZONE PVAV WITH PFP BOXES AND REHEAT 15 OA CONTROLLER,Sensor,1
 Non-Parent Node Connection,9 ZONE PVAV WITH PFP BOXES AND REHEAT 16 MIXED AIR NODE,CONTROLLER:OUTDOORAIR,9 ZONE PVAV WITH PFP BOXES AND REHEAT 16 OA CONTROLLER,Sensor,1
 Non-Parent Node Connection,9 ZONE PVAV WITH PFP BOXES AND REHEAT 16 OUTDOOR AIR NODE,CONTROLLER:OUTDOORAIR,9 ZONE PVAV WITH PFP BOXES AND REHEAT 16 OA CONTROLLER,Actuator,1
 Non-Parent Node Connection,9 ZONE PVAV WITH PFP BOXES AND REHEAT 16 RELIEF AIR NODE,CONTROLLER:OUTDOORAIR,9 ZONE PVAV WITH PFP BOXES AND REHEAT 16 OA CONTROLLER,Actuator,1
 Non-Parent Node Connection,9 ZONE PVAV WITH PFP BOXES AND REHEAT 16 SUPPLY INLET NODE,CONTROLLER:OUTDOORAIR,9 ZONE PVAV WITH PFP BOXES AND REHEAT 16 OA CONTROLLER,Sensor,1
 Non-Parent Node Connection,9 ZONE PVAV WITH PFP BOXES AND REHEAT 17 MIXED AIR NODE,CONTROLLER:OUTDOORAIR,9 ZONE PVAV WITH PFP BOXES AND REHEAT 17 OA CONTROLLER,Sensor,1
 Non-Parent Node Connection,9 ZONE PVAV WITH PFP BOXES AND REHEAT 17 OUTDOOR AIR NODE,CONTROLLER:OUTDOORAIR,9 ZONE PVAV WITH PFP BOXES AND REHEAT 17 OA CONTROLLER,Actuator,1
 Non-Parent Node Connection,9 ZONE PVAV WITH PFP BOXES AND REHEAT 17 RELIEF AIR NODE,CONTROLLER:OUTDOORAIR,9 ZONE PVAV WITH PFP BOXES AND REHEAT 17 OA CONTROLLER,Actuator,1
 Non-Parent Node Connection,9 ZONE PVAV WITH PFP BOXES AND REHEAT 17 SUPPLY INLET NODE,CONTROLLER:OUTDOORAIR,9 ZONE PVAV WITH PFP BOXES AND REHEAT 17 OA CONTROLLER,Sensor,1
 Non-Parent Node Connection,9 ZONE PVAV WITH PFP BOXES AND REHEAT 18 MIXED AIR NODE,CONTROLLER:OUTDOORAIR,9 ZONE PVAV WITH PFP BOXES AND REHEAT 18 OA CONTROLLER,Sensor,1
 Non-Parent Node Connection,9 ZONE PVAV WITH PFP BOXES AND REHEAT 18 OUTDOOR AIR NODE,CONTROLLER:OUTDOORAIR,9 ZONE PVAV WITH PFP BOXES AND REHEAT 18 OA CONTROLLER,Actuator,1
 Non-Parent Node Connection,9 ZONE PVAV WITH PFP BOXES AND REHEAT 18 RELIEF AIR NODE,CONTROLLER:OUTDOORAIR,9 ZONE PVAV WITH PFP BOXES AND REHEAT 18 OA CONTROLLER,Actuator,1
 Non-Parent Node Connection,9 ZONE PVAV WITH PFP BOXES AND REHEAT 18 SUPPLY INLET NODE,CONTROLLER:OUTDOORAIR,9 ZONE PVAV WITH PFP BOXES AND REHEAT 18 OA CONTROLLER,Sensor,1
 Non-Parent Node Connection,9 ZONE PVAV WITH PFP BOXES AND REHEAT 19 MIXED AIR NODE,CONTROLLER:OUTDOORAIR,9 ZONE PVAV WITH PFP BOXES AND REHEAT 19 OA CONTROLLER,Sensor,1
 Non-Parent Node Connection,9 ZONE PVAV WITH PFP BOXES AND REHEAT 19 OUTDOOR AIR NODE,CONTROLLER:OUTDOORAIR,9 ZONE PVAV WITH PFP BOXES AND REHEAT 19 OA CONTROLLER,Actuator,1
 Non-Parent Node Connection,9 ZONE PVAV WITH PFP BOXES AND REHEAT 19 RELIEF AIR NODE,CONTROLLER:OUTDOORAIR,9 ZONE PVAV WITH PFP BOXES AND REHEAT 19 OA CONTROLLER,Actuator,1
 Non-Parent Node Connection,9 ZONE PVAV WITH PFP BOXES AND REHEAT 19 SUPPLY INLET NODE,CONTROLLER:OUTDOORAIR,9 ZONE PVAV WITH PFP BOXES AND REHEAT 19 OA CONTROLLER,Sensor,1
 Non-Parent Node Connection,9 ZONE PVAV WITH PFP BOXES AND REHEAT 2 MIXED AIR NODE,CONTROLLER:OUTDOORAIR,9 ZONE PVAV WITH PFP BOXES AND REHEAT 2 OA CONTROLLER,Sensor,1
 Non-Parent Node Connection,9 ZONE PVAV WITH PFP BOXES AND REHEAT 2 OUTDOOR AIR NODE,CONTROLLER:OUTDOORAIR,9 ZONE PVAV WITH PFP BOXES AND REHEAT 2 OA CONTROLLER,Actuator,1
 Non-Parent Node Connection,9 ZONE PVAV WITH PFP BOXES AND REHEAT 2 RELIEF AIR NODE,CONTROLLER:OUTDOORAIR,9 ZONE PVAV WITH PFP BOXES AND REHEAT 2 OA CONTROLLER,Actuator,1
 Non-Parent Node Connection,9 ZONE PVAV WITH PFP BOXES AND REHEAT 2 SUPPLY INLET NODE,CONTROLLER:OUTDOORAIR,9 ZONE PVAV WITH PFP BOXES AND REHEAT 2 OA CONTROLLER,Sensor,1
 Non-Parent Node Connection,9 ZONE PVAV WITH PFP BOXES AND REHEAT 3 MIXED AIR NODE,CONTROLLER:OUTDOORAIR,9 ZONE PVAV WITH PFP BOXES AND REHEAT 3 OA CONTROLLER,Sensor,1
 Non-Parent Node Connection,9 ZONE PVAV WITH PFP BOXES AND REHEAT 3 OUTDOOR AIR NODE,CONTROLLER:OUTDOORAIR,9 ZONE PVAV WITH PFP BOXES AND REHEAT 3 OA CONTROLLER,Actuator,1
 Non-Parent Node Connection,9 ZONE PVAV WITH PFP BOXES AND REHEAT 3 RELIEF AIR NODE,CONTROLLER:OUTDOORAIR,9 ZONE PVAV WITH PFP BOXES AND REHEAT 3 OA CONTROLLER,Actuator,1
 Non-Parent Node Connection,9 ZONE PVAV WITH PFP BOXES AND REHEAT 3 SUPPLY INLET NODE,CONTROLLER:OUTDOORAIR,9 ZONE PVAV WITH PFP BOXES AND REHEAT 3 OA CONTROLLER,Sensor,1
 Non-Parent Node Connection,9 ZONE PVAV WITH PFP BOXES AND REHEAT 4 MIXED AIR NODE,CONTROLLER:OUTDOORAIR,9 ZONE PVAV WITH PFP BOXES AND REHEAT 4 OA CONTROLLER,Sensor,1
 Non-Parent Node Connection,9 ZONE PVAV WITH PFP BOXES AND REHEAT 4 OUTDOOR AIR NODE,CONTROLLER:OUTDOORAIR,9 ZONE PVAV WITH PFP BOXES AND REHEAT 4 OA CONTROLLER,Actuator,1
 Non-Parent Node Connection,9 ZONE PVAV WITH PFP BOXES AND REHEAT 4 RELIEF AIR NODE,CONTROLLER:OUTDOORAIR,9 ZONE PVAV WITH PFP BOXES AND REHEAT 4 OA CONTROLLER,Actuator,1
 Non-Parent Node Connection,9 ZONE PVAV WITH PFP BOXES AND REHEAT 4 SUPPLY INLET NODE,CONTROLLER:OUTDOORAIR,9 ZONE PVAV WITH PFP BOXES AND REHEAT 4 OA CONTROLLER,Sensor,1
 Non-Parent Node Connection,9 ZONE PVAV WITH PFP BOXES AND REHEAT 5 MIXED AIR NODE,CONTROLLER:OUTDOORAIR,9 ZONE PVAV WITH PFP BOXES AND REHEAT 5 OA CONTROLLER,Sensor,1
 Non-Parent Node Connection,9 ZONE PVAV WITH PFP BOXES AND REHEAT 5 OUTDOOR AIR NODE,CONTROLLER:OUTDOORAIR,9 ZONE PVAV WITH PFP BOXES AND REHEAT 5 OA CONTROLLER,Actuator,1
 Non-Parent Node Connection,9 ZONE PVAV WITH PFP BOXES AND REHEAT 5 RELIEF AIR NODE,CONTROLLER:OUTDOORAIR,9 ZONE PVAV WITH PFP BOXES AND REHEAT 5 OA CONTROLLER,Actuator,1
 Non-Parent Node Connection,9 ZONE PVAV WITH PFP BOXES AND REHEAT 5 SUPPLY INLET NODE,CONTROLLER:OUTDOORAIR,9 ZONE PVAV WITH PFP BOXES AND REHEAT 5 OA CONTROLLER,Sensor,1
 Non-Parent Node Connection,9 ZONE PVAV WITH PFP BOXES AND REHEAT 6 MIXED AIR NODE,CONTROLLER:OUTDOORAIR,9 ZONE PVAV WITH PFP BOXES AND REHEAT 6 OA CONTROLLER,Sensor,1
 Non-Parent Node Connection,9 ZONE PVAV WITH PFP BOXES AND REHEAT 6 OUTDOOR AIR NODE,CONTROLLER:OUTDOORAIR,9 ZONE PVAV WITH PFP BOXES AND REHEAT 6 OA CONTROLLER,Actuator,1
 Non-Parent Node Connection,9 ZONE PVAV WITH PFP BOXES AND REHEAT 6 RELIEF AIR NODE,CONTROLLER:OUTDOORAIR,9 ZONE PVAV WITH PFP BOXES AND REHEAT 6 OA CONTROLLER,Actuator,1
 Non-Parent Node Connection,9 ZONE PVAV WITH PFP BOXES AND REHEAT 6 SUPPLY INLET NODE,CONTROLLER:OUTDOORAIR,9 ZONE PVAV WITH PFP BOXES AND REHEAT 6 OA CONTROLLER,Sensor,1
 Non-Parent Node Connection,9 ZONE PVAV WITH PFP BOXES AND REHEAT 7 MIXED AIR NODE,CONTROLLER:OUTDOORAIR,9 ZONE PVAV WITH PFP BOXES AND REHEAT 7 OA CONTROLLER,Sensor,1
 Non-Parent Node Connection,9 ZONE PVAV WITH PFP BOXES AND REHEAT 7 OUTDOOR AIR NODE,CONTROLLER:OUTDOORAIR,9 ZONE PVAV WITH PFP BOXES AND REHEAT 7 OA CONTROLLER,Actuator,1
 Non-Parent Node Connection,9 ZONE PVAV WITH PFP BOXES AND REHEAT 7 RELIEF AIR NODE,CONTROLLER:OUTDOORAIR,9 ZONE PVAV WITH PFP BOXES AND REHEAT 7 OA CONTROLLER,Actuator,1
 Non-Parent Node Connection,9 ZONE PVAV WITH PFP BOXES AND REHEAT 7 SUPPLY INLET NODE,CONTROLLER:OUTDOORAIR,9 ZONE PVAV WITH PFP BOXES AND REHEAT 7 OA CONTROLLER,Sensor,1
 Non-Parent Node Connection,9 ZONE PVAV WITH PFP BOXES AND REHEAT 8 MIXED AIR NODE,CONTROLLER:OUTDOORAIR,9 ZONE PVAV WITH PFP BOXES AND REHEAT 8 OA CONTROLLER,Sensor,1
 Non-Parent Node Connection,9 ZONE PVAV WITH PFP BOXES AND REHEAT 8 OUTDOOR AIR NODE,CONTROLLER:OUTDOORAIR,9 ZONE PVAV WITH PFP BOXES AND REHEAT 8 OA CONTROLLER,Actuator,1
 Non-Parent Node Connection,9 ZONE PVAV WITH PFP BOXES AND REHEAT 8 RELIEF AIR NODE,CONTROLLER:OUTDOORAIR,9 ZONE PVAV WITH PFP BOXES AND REHEAT 8 OA CONTROLLER,Actuator,1
 Non-Parent Node Connection,9 ZONE PVAV WITH PFP BOXES AND REHEAT 8 SUPPLY INLET NODE,CONTROLLER:OUTDOORAIR,9 ZONE PVAV WITH PFP BOXES AND REHEAT 8 OA CONTROLLER,Sensor,1
 Non-Parent Node Connection,9 ZONE PVAV WITH PFP BOXES AND REHEAT 9 MIXED AIR NODE,CONTROLLER:OUTDOORAIR,9 ZONE PVAV WITH PFP BOXES AND REHEAT 9 OA CONTROLLER,Sensor,1
 Non-Parent Node Connection,9 ZONE PVAV WITH PFP BOXES AND REHEAT 9 OUTDOOR AIR NODE,CONTROLLER:OUTDOORAIR,9 ZONE PVAV WITH PFP BOXES AND REHEAT 9 OA CONTROLLER,Actuator,1
 Non-Parent Node Connection,9 ZONE PVAV WITH PFP BOXES AND REHEAT 9 RELIEF AIR NODE,CONTROLLER:OUTDOORAIR,9 ZONE PVAV WITH PFP BOXES AND REHEAT 9 OA CONTROLLER,Actuator,1
 Non-Parent Node Connection,9 ZONE PVAV WITH PFP BOXES AND REHEAT 9 SUPPLY INLET NODE,CONTROLLER:OUTDOORAIR,9 ZONE PVAV WITH PFP BOXES AND REHEAT 9 OA CONTROLLER,Sensor,1
 Non-Parent Node Connection,9 ZONE PVAV WITH PFP BOXES AND REHEAT MIXED AIR NODE,COIL:COOLING:DX:TWOSPEED,9 ZONE PVAV WITH PFP BOXES AND REHEAT 2SPD DX CLG COIL 79KBTU/HR 8.9EER,Inlet,1
 Non-Parent Node Connection,9 ZONE PVAV WITH PFP BOXES AND REHEAT 2SPD DX CLG COIL OUTLET AIR NODE,COIL:COOLING:DX:TWOSPEED,9 ZONE PVAV WITH PFP BOXES AND REHEAT 2SPD DX CLG COIL 79KBTU/HR 8.9EER,Outlet,1
 Non-Parent Node Connection,9 ZONE PVAV WITH PFP BOXES AND REHEAT 1 MIXED AIR NODE,COIL:COOLING:DX:TWOSPEED,9 ZONE PVAV WITH PFP BOXES AND REHEAT 1 2SPD DX CLG COIL 81KBTU/HR 8.9EER,Inlet,1
 Non-Parent Node Connection,9 ZONE PVAV WITH PFP BOXES AND REHEAT 1 2SPD DX CLG COIL OUTLET AIR NODE,COIL:COOLING:DX:TWOSPEED,9 ZONE PVAV WITH PFP BOXES AND REHEAT 1 2SPD DX CLG COIL 81KBTU/HR 8.9EER,Outlet,1
 Non-Parent Node Connection,9 ZONE PVAV WITH PFP BOXES AND REHEAT 10 MIXED AIR NODE,COIL:COOLING:DX:TWOSPEED,9 ZONE PVAV WITH PFP BOXES AND REHEAT 10 2SPD DX CLG COIL 87KBTU/HR 8.9EER,Inlet,1
 Non-Parent Node Connection,9 ZONE PVAV WITH PFP BOXES AND REHEAT 10 2SPD DX CLG COIL OUTLET AIR NODE,COIL:COOLING:DX:TWOSPEED,9 ZONE PVAV WITH PFP BOXES AND REHEAT 10 2SPD DX CLG COIL 87KBTU/HR 8.9EER,Outlet,1
 Non-Parent Node Connection,9 ZONE PVAV WITH PFP BOXES AND REHEAT 11 MIXED AIR NODE,COIL:COOLING:DX:TWOSPEED,9 ZONE PVAV WITH PFP BOXES AND REHEAT 11 2SPD DX CLG COIL 82KBTU/HR 8.9EER,Inlet,1
 Non-Parent Node Connection,9 ZONE PVAV WITH PFP BOXES AND REHEAT 11 2SPD DX CLG COIL OUTLET AIR NODE,COIL:COOLING:DX:TWOSPEED,9 ZONE PVAV WITH PFP BOXES AND REHEAT 11 2SPD DX CLG COIL 82KBTU/HR 8.9EER,Outlet,1
 Non-Parent Node Connection,9 ZONE PVAV WITH PFP BOXES AND REHEAT 12 MIXED AIR NODE,COIL:COOLING:DX:TWOSPEED,9 ZONE PVAV WITH PFP BOXES AND REHEAT 12 2SPD DX CLG COIL 83KBTU/HR 8.9EER,Inlet,1
 Non-Parent Node Connection,9 ZONE PVAV WITH PFP BOXES AND REHEAT 12 2SPD DX CLG COIL OUTLET AIR NODE,COIL:COOLING:DX:TWOSPEED,9 ZONE PVAV WITH PFP BOXES AND REHEAT 12 2SPD DX CLG COIL 83KBTU/HR 8.9EER,Outlet,1
 Non-Parent Node Connection,9 ZONE PVAV WITH PFP BOXES AND REHEAT 13 MIXED AIR NODE,COIL:COOLING:DX:TWOSPEED,9 ZONE PVAV WITH PFP BOXES AND REHEAT 13 2SPD DX CLG COIL 83KBTU/HR 8.9EER,Inlet,1
 Non-Parent Node Connection,9 ZONE PVAV WITH PFP BOXES AND REHEAT 13 2SPD DX CLG COIL OUTLET AIR NODE,COIL:COOLING:DX:TWOSPEED,9 ZONE PVAV WITH PFP BOXES AND REHEAT 13 2SPD DX CLG COIL 83KBTU/HR 8.9EER,Outlet,1
 Non-Parent Node Connection,9 ZONE PVAV WITH PFP BOXES AND REHEAT 14 MIXED AIR NODE,COIL:COOLING:DX:TWOSPEED,9 ZONE PVAV WITH PFP BOXES AND REHEAT 14 2SPD DX CLG COIL 84KBTU/HR 8.9EER,Inlet,1
 Non-Parent Node Connection,9 ZONE PVAV WITH PFP BOXES AND REHEAT 14 2SPD DX CLG COIL OUTLET AIR NODE,COIL:COOLING:DX:TWOSPEED,9 ZONE PVAV WITH PFP BOXES AND REHEAT 14 2SPD DX CLG COIL 84KBTU/HR 8.9EER,Outlet,1
 Non-Parent Node Connection,9 ZONE PVAV WITH PFP BOXES AND REHEAT 15 MIXED AIR NODE,COIL:COOLING:DX:TWOSPEED,9 ZONE PVAV WITH PFP BOXES AND REHEAT 15 2SPD DX CLG COIL 84KBTU/HR 8.9EER,Inlet,1
 Non-Parent Node Connection,9 ZONE PVAV WITH PFP BOXES AND REHEAT 15 2SPD DX CLG COIL OUTLET AIR NODE,COIL:COOLING:DX:TWOSPEED,9 ZONE PVAV WITH PFP BOXES AND REHEAT 15 2SPD DX CLG COIL 84KBTU/HR 8.9EER,Outlet,1
 Non-Parent Node Connection,9 ZONE PVAV WITH PFP BOXES AND REHEAT 16 MIXED AIR NODE,COIL:COOLING:DX:TWOSPEED,9 ZONE PVAV WITH PFP BOXES AND REHEAT 16 2SPD DX CLG COIL 85KBTU/HR 8.9EER,Inlet,1
 Non-Parent Node Connection,9 ZONE PVAV WITH PFP BOXES AND REHEAT 16 2SPD DX CLG COIL OUTLET AIR NODE,COIL:COOLING:DX:TWOSPEED,9 ZONE PVAV WITH PFP BOXES AND REHEAT 16 2SPD DX CLG COIL 85KBTU/HR 8.9EER,Outlet,1
 Non-Parent Node Connection,9 ZONE PVAV WITH PFP BOXES AND REHEAT 17 MIXED AIR NODE,COIL:COOLING:DX:TWOSPEED,9 ZONE PVAV WITH PFP BOXES AND REHEAT 17 2SPD DX CLG COIL 85KBTU/HR 8.9EER,Inlet,1
 Non-Parent Node Connection,9 ZONE PVAV WITH PFP BOXES AND REHEAT 17 2SPD DX CLG COIL OUTLET AIR NODE,COIL:COOLING:DX:TWOSPEED,9 ZONE PVAV WITH PFP BOXES AND REHEAT 17 2SPD DX CLG COIL 85KBTU/HR 8.9EER,Outlet,1
 Non-Parent Node Connection,9 ZONE PVAV WITH PFP BOXES AND REHEAT 18 MIXED AIR NODE,COIL:COOLING:DX:TWOSPEED,9 ZONE PVAV WITH PFP BOXES AND REHEAT 18 2SPD DX CLG COIL 85KBTU/HR 8.9EER,Inlet,1
 Non-Parent Node Connection,9 ZONE PVAV WITH PFP BOXES AND REHEAT 18 2SPD DX CLG COIL OUTLET AIR NODE,COIL:COOLING:DX:TWOSPEED,9 ZONE PVAV WITH PFP BOXES AND REHEAT 18 2SPD DX CLG COIL 85KBTU/HR 8.9EER,Outlet,1
 Non-Parent Node Connection,9 ZONE PVAV WITH PFP BOXES AND REHEAT 19 MIXED AIR NODE,COIL:COOLING:DX:TWOSPEED,9 ZONE PVAV WITH PFP BOXES AND REHEAT 19 2SPD DX CLG COIL 95KBTU/HR 8.9EER,Inlet,1
 Non-Parent Node Connection,9 ZONE PVAV WITH PFP BOXES AND REHEAT 19 2SPD DX CLG COIL OUTLET AIR NODE,COIL:COOLING:DX:TWOSPEED,9 ZONE PVAV WITH PFP BOXES AND REHEAT 19 2SPD DX CLG COIL 95KBTU/HR 8.9EER,Outlet,1
 Non-Parent Node Connection,9 ZONE PVAV WITH PFP BOXES AND REHEAT 2 MIXED AIR NODE,COIL:COOLING:DX:TWOSPEED,9 ZONE PVAV WITH PFP BOXES AND REHEAT 2 2SPD DX CLG COIL 86KBTU/HR 8.9EER,Inlet,1
 Non-Parent Node Connection,9 ZONE PVAV WITH PFP BOXES AND REHEAT 2 2SPD DX CLG COIL OUTLET AIR NODE,COIL:COOLING:DX:TWOSPEED,9 ZONE PVAV WITH PFP BOXES AND REHEAT 2 2SPD DX CLG COIL 86KBTU/HR 8.9EER,Outlet,1
 Non-Parent Node Connection,9 ZONE PVAV WITH PFP BOXES AND REHEAT 3 MIXED AIR NODE,COIL:COOLING:DX:TWOSPEED,9 ZONE PVAV WITH PFP BOXES AND REHEAT 3 2SPD DX CLG COIL 86KBTU/HR 8.9EER,Inlet,1
 Non-Parent Node Connection,9 ZONE PVAV WITH PFP BOXES AND REHEAT 3 2SPD DX CLG COIL OUTLET AIR NODE,COIL:COOLING:DX:TWOSPEED,9 ZONE PVAV WITH PFP BOXES AND REHEAT 3 2SPD DX CLG COIL 86KBTU/HR 8.9EER,Outlet,1
 Non-Parent Node Connection,9 ZONE PVAV WITH PFP BOXES AND REHEAT 4 MIXED AIR NODE,COIL:COOLING:DX:TWOSPEED,9 ZONE PVAV WITH PFP BOXES AND REHEAT 4 2SPD DX CLG COIL 86KBTU/HR 8.9EER,Inlet,1
 Non-Parent Node Connection,9 ZONE PVAV WITH PFP BOXES AND REHEAT 4 2SPD DX CLG COIL OUTLET AIR NODE,COIL:COOLING:DX:TWOSPEED,9 ZONE PVAV WITH PFP BOXES AND REHEAT 4 2SPD DX CLG COIL 86KBTU/HR 8.9EER,Outlet,1
 Non-Parent Node Connection,9 ZONE PVAV WITH PFP BOXES AND REHEAT 5 MIXED AIR NODE,COIL:COOLING:DX:TWOSPEED,9 ZONE PVAV WITH PFP BOXES AND REHEAT 5 2SPD DX CLG COIL 86KBTU/HR 8.9EER,Inlet,1
 Non-Parent Node Connection,9 ZONE PVAV WITH PFP BOXES AND REHEAT 5 2SPD DX CLG COIL OUTLET AIR NODE,COIL:COOLING:DX:TWOSPEED,9 ZONE PVAV WITH PFP BOXES AND REHEAT 5 2SPD DX CLG COIL 86KBTU/HR 8.9EER,Outlet,1
 Non-Parent Node Connection,9 ZONE PVAV WITH PFP BOXES AND REHEAT 6 MIXED AIR NODE,COIL:COOLING:DX:TWOSPEED,9 ZONE PVAV WITH PFP BOXES AND REHEAT 6 2SPD DX CLG COIL 87KBTU/HR 8.9EER,Inlet,1
 Non-Parent Node Connection,9 ZONE PVAV WITH PFP BOXES AND REHEAT 6 2SPD DX CLG COIL OUTLET AIR NODE,COIL:COOLING:DX:TWOSPEED,9 ZONE PVAV WITH PFP BOXES AND REHEAT 6 2SPD DX CLG COIL 87KBTU/HR 8.9EER,Outlet,1
 Non-Parent Node Connection,9 ZONE PVAV WITH PFP BOXES AND REHEAT 7 MIXED AIR NODE,COIL:COOLING:DX:TWOSPEED,9 ZONE PVAV WITH PFP BOXES AND REHEAT 7 2SPD DX CLG COIL 87KBTU/HR 8.9EER,Inlet,1
 Non-Parent Node Connection,9 ZONE PVAV WITH PFP BOXES AND REHEAT 7 2SPD DX CLG COIL OUTLET AIR NODE,COIL:COOLING:DX:TWOSPEED,9 ZONE PVAV WITH PFP BOXES AND REHEAT 7 2SPD DX CLG COIL 87KBTU/HR 8.9EER,Outlet,1
 Non-Parent Node Connection,9 ZONE PVAV WITH PFP BOXES AND REHEAT 8 MIXED AIR NODE,COIL:COOLING:DX:TWOSPEED,9 ZONE PVAV WITH PFP BOXES AND REHEAT 8 2SPD DX CLG COIL 87KBTU/HR 8.9EER,Inlet,1
 Non-Parent Node Connection,9 ZONE PVAV WITH PFP BOXES AND REHEAT 8 2SPD DX CLG COIL OUTLET AIR NODE,COIL:COOLING:DX:TWOSPEED,9 ZONE PVAV WITH PFP BOXES AND REHEAT 8 2SPD DX CLG COIL 87KBTU/HR 8.9EER,Outlet,1
 Non-Parent Node Connection,9 ZONE PVAV WITH PFP BOXES AND REHEAT 9 MIXED AIR NODE,COIL:COOLING:DX:TWOSPEED,9 ZONE PVAV WITH PFP BOXES AND REHEAT 9 2SPD DX CLG COIL 87KBTU/HR 8.9EER,Inlet,1
 Non-Parent Node Connection,9 ZONE PVAV WITH PFP BOXES AND REHEAT 9 2SPD DX CLG COIL OUTLET AIR NODE,COIL:COOLING:DX:TWOSPEED,9 ZONE PVAV WITH PFP BOXES AND REHEAT 9 2SPD DX CLG COIL 87KBTU/HR 8.9EER,Outlet,1
 Non-Parent Node Connection,OFFICE SHARED SERVICE WATER LOOP SUPPLY INLET NODE,PUMP:CONSTANTSPEED,OFFICE SHARED SERVICE WATER LOOP CIRCULATOR PUMP,Inlet,1
 Non-Parent Node Connection,OFFICE SHARED SERVICE WATER LOOP CIRCULATOR PUMP OUTLET WATER NODE,PUMP:CONSTANTSPEED,OFFICE SHARED SERVICE WATER LOOP CIRCULATOR PUMP,Outlet,1
