Program Version,EnergyPlus, Version 23.2.0-7636e6b3e9, YMD=2024.01.24 11:18
! <Version>, Version ID
 Version, 23.2
! <Timesteps per Hour>, #TimeSteps, Minutes per TimeStep {minutes}
 Timesteps per Hour,  4, 15
! <System Convergence Limits>, Minimum System TimeStep {minutes}, Max HVAC Iterations, Minimum Plant Iterations, Maximum Plant Iterations
 System Convergence Limits, 1, 20, 2, 8
! <Simulation Control>, Do Zone Sizing, Do System Sizing, Do Plant Sizing, Do Design Days, Do Weather Simulation, Do HVAC Sizing Simulation
 Simulation Control, Yes, Yes, Yes, Yes, No, Yes
! <Performance Precision Tradeoffs>, Use Coil Direct Simulation, Zone Radiant Exchange Algorithm, Override Mode, Number of Timestep In Hour, Force Euler Method, Minimum Number of Warmup Days, Force Suppress All Begin Environment Resets, Minimum System Timestep, MaxZoneTempDiff, MaxAllowedDelTemp
 Performance Precision Tradeoffs, No, ScriptF, Normal, 4, No, 1, No, 1.0, 0.300, 2.0000E-003
! <Output Reporting Tolerances>, Tolerance for Time Heating Setpoint Not Met, Tolerance for Zone Cooling Setpoint Not Met Time
 Output Reporting Tolerances, 0.556, 0.556, 
! <Site:GroundTemperature:BuildingSurface>,Jan{C},Feb{C},Mar{C},Apr{C},May{C},Jun{C},Jul{C},Aug{C},Sep{C},Oct{C},Nov{C},Dec{C}
 Site:GroundTemperature:BuildingSurface,  18.00,  18.00,  18.00,  18.00,  18.00,  18.00,  18.00,  18.00,  18.00,  18.00,  18.00,  18.00
! <Site:GroundTemperature:FCfactorMethod>,Jan{C},Feb{C},Mar{C},Apr{C},May{C},Jun{C},Jul{C},Aug{C},Sep{C},Oct{C},Nov{C},Dec{C}
 Site:GroundTemperature:FCfactorMethod,  16.00,  11.90,   7.70,   4.00,   7.90,  13.80,  17.20,  20.80,  24.80,  26.10,  26.50,  22.50
! <Site:GroundTemperature:Shallow>,Jan{C},Feb{C},Mar{C},Apr{C},May{C},Jun{C},Jul{C},Aug{C},Sep{C},Oct{C},Nov{C},Dec{C}
 Site:GroundTemperature:Shallow,  13.00,  13.00,  13.00,  13.00,  13.00,  13.00,  13.00,  13.00,  13.00,  13.00,  13.00,  13.00
! <Site:GroundTemperature:Deep>,Jan{C},Feb{C},Mar{C},Apr{C},May{C},Jun{C},Jul{C},Aug{C},Sep{C},Oct{C},Nov{C},Dec{C}
 Site:GroundTemperature:Deep,  16.00,  16.00,  16.00,  16.00,  16.00,  16.00,  16.00,  16.00,  16.00,  16.00,  16.00,  16.00
! <Site:GroundReflectance>,Jan{dimensionless},Feb{dimensionless},Mar{dimensionless},Apr{dimensionless},May{dimensionless},Jun{dimensionless},Jul{dimensionless},Aug{dimensionless},Sep{dimensionless},Oct{dimensionless},Nov{dimensionless},Dec{dimensionless}
 Site:GroundReflectance,  0.20,  0.20,  0.20,  0.20,  0.20,  0.20,  0.20,  0.20,  0.20,  0.20,  0.20,  0.20
! <Site:GroundReflectance:SnowModifier>, Normal, Daylighting {dimensionless}
 Site:GroundReflectance:SnowModifier,   1.000,   1.000
! <Site:GroundReflectance:Snow>,Jan{dimensionless},Feb{dimensionless},Mar{dimensionless},Apr{dimensionless},May{dimensionless},Jun{dimensionless},Jul{dimensionless},Aug{dimensionless},Sep{dimensionless},Oct{dimensionless},Nov{dimensionless},Dec{dimensionless}
 Site:GroundReflectance:Snow,  0.20,  0.20,  0.20,  0.20,  0.20,  0.20,  0.20,  0.20,  0.20,  0.20,  0.20,  0.20
! <Site:GroundReflectance:Snow:Daylighting>,Jan{dimensionless},Feb{dimensionless},Mar{dimensionless},Apr{dimensionless},May{dimensionless},Jun{dimensionless},Jul{dimensionless},Aug{dimensionless},Sep{dimensionless},Oct{dimensionless},Nov{dimensionless},Dec{dimensionless}
 Site:GroundReflectance:Snow:Daylighting,  0.20,  0.20,  0.20,  0.20,  0.20,  0.20,  0.20,  0.20,  0.20,  0.20,  0.20,  0.20
! <Environment:Weather Station>,Wind Sensor Height Above Ground {m},Wind Speed Profile Exponent {},Wind Speed Profile Boundary Layer Thickness {m},Air Temperature Sensor Height Above Ground {m},Wind Speed Modifier Coefficient-Internal,Temperature Modifier Coefficient-Internal
Environment:Weather Station,10.000,0.140,270.000,1.500,1.586,9.750E-003
! <Site:Location>, Location Name, Latitude {N+/S- Deg}, Longitude {E+/W- Deg},  Time Zone Number {GMT+/-}, Elevation {m},  Standard Pressure at Elevation {Pa}, Standard RhoAir at Elevation
Site:Location,Maxwell Afb AL USA customized weather file WMO#=722265,32.38,-86.36,-6.00,52.00,100702,1.1969
! <Site Water Mains Temperature Information>,Calculation Method{},Water Mains Temperature Schedule Name{},Annual Average Outdoor Air Temperature{C},Maximum Difference In Monthly Average Outdoor Air Temperatures{deltaC},Fixed Default Water Mains Temperature{C}
Site Water Mains Temperature Information,Correlation,NA,18.74,20.53,NA
! <Building Information>, Building Name,North Axis {deg},Terrain,  Loads Convergence Tolerance Value,Temperature Convergence Tolerance Value,  Solar Distribution,Maximum Number of Warmup Days,Minimum Number of Warmup Days
 Building Information,ComStock DOE Ref Pre-1980|LargeOffice,270.000,City,4.00000E-002,0.40000,FullExterior,25,1
! <Inside Convection Algorithm>, Algorithm {Simple | TARP | CeilingDiffuser | AdaptiveConvectionAlgorithm}
Inside Convection Algorithm,TARP
! <Outside Convection Algorithm>, Algorithm {SimpleCombined | TARP | MoWitt | DOE-2 | AdaptiveConvectionAlgorithm}
Outside Convection Algorithm,DOE-2
! <Sky Radiance Distribution>, Value {Anisotropic}
Sky Radiance Distribution,Anisotropic
! <Zone Air Solution Algorithm>, Algorithm {ThirdOrderBackwardDifference | AnalyticalSolution | EulerMethod}, Space Heat Balance Sizing, Space Heat Balance Simulation
 Zone Air Solution Algorithm, ThirdOrderBackwardDifference, No, No
! <Zone Air Carbon Dioxide Balance Simulation>, Simulation {Yes/No}, Carbon Dioxide Concentration
 Zone Air Carbon Dioxide Balance Simulation, No,N/A
! <Zone Air Generic Contaminant Balance Simulation>, Simulation {Yes/No}, Generic Contaminant Concentration
 Zone Air Generic Contaminant Balance Simulation, No,N/A
! <Zone Air Mass Flow Balance Simulation>, Enforce Mass Balance, Adjust Zone Mixing and Return {AdjustMixingOnly | AdjustReturnOnly | AdjustMixingThenReturn | AdjustReturnThenMixing | None}, Adjust Zone Infiltration {AddInfiltration | AdjustInfiltration | None}, Infiltration Zones {MixingSourceZonesOnly | AllZones}
 Zone Air Mass Flow Balance Simulation, No,N/A,N/A,N/A
! <HVACSystemRootFindingAlgorithm>, Value {RegulaFalsi | Bisection | BisectionThenRegulaFalsi | RegulaFalsiThenBisection}
 HVACSystemRootFindingAlgorithm, RegulaFalsi
! <Environment:Site Atmospheric Variation>,Wind Speed Profile Exponent {},Wind Speed Profile Boundary Layer Thickness {m},Air Temperature Gradient Coefficient {K/m}
Environment:Site Atmospheric Variation,0.330,460.000,6.500000E-003
! <Surface Geometry>,Starting Corner,Vertex Input Direction,Coordinate System,Daylight Reference Point Coordinate System,Rectangular (Simple) Surface Coordinate System
 Surface Geometry,UpperLeftCorner,Counterclockwise,RelativeCoordinateSystem,RelativeCoordinateSystem,RelativeToZoneOrigin
! <Surface Heat Transfer Algorithm>, Value {CTF - ConductionTransferFunction | EMPD - MoisturePenetrationDepthConductionTransferFunction | CondFD - ConductionFiniteDifference | HAMT - CombinedHeatAndMoistureFiniteElement} - Description,Inside Surface Max Temperature Limit{C}, Surface Convection Coefficient Lower Limit {W/m2-K}, Surface Convection Coefficient Upper Limit {W/m2-K}
Surface Heat Transfer Algorithm, CTF - ConductionTransferFunction,200,0.10,1000.0
! <Shading Summary>, Number of Fixed Detached Shades, Number of Building Detached Shades, Number of Attached Shades
 Shading Summary,0,0,0
! <Zone Summary>, Number of Zones, Number of Zone Surfaces, Number of SubSurfaces
 Zone Summary,123,1021,160
! <Zone Information>,Zone Name,North Axis {deg},Origin X-Coordinate {m},Origin Y-Coordinate {m},Origin Z-Coordinate {m},Centroid X-Coordinate {m},Centroid Y-Coordinate {m},Centroid Z-Coordinate {m},Type,Zone Multiplier,Zone List Multiplier,Minimum X {m},Maximum X {m},Minimum Y {m},Maximum Y {m},Minimum Z {m},Maximum Z {m},Ceiling Height {m},Volume {m3},Zone Inside Convection Algorithm {Simple-Detailed-CeilingDiffuser-TrombeWall},Zone Outside Convection Algorithm {Simple-Detailed-Tarp-MoWitt-DOE-2-BLAST}, Floor Area {m2},Exterior Gross Wall Area {m2},Exterior Net Wall Area {m2},Exterior Window Area {m2}, Number of Surfaces, Number of SubSurfaces, Number of Shading SubSurfaces,  Part of Total Building Area
 Zone Information, ZONE OFFICE OFFICELARGE DATA CENTER A  - STORY GROUND,0.0,7.32,-11.58,0.00,9.29,10.15,1.98,1,1,1,7.00,11.58,7.32,12.98,0.00,3.96,3.96,102.50,TARP,DOE-2,25.87,22.42,13.90,8.52,6,1,0,Yes
 Zone Information, ZONE OFFICE OFFICELARGE DATA CENTER B  - STORY GROUND,0.0,7.32,-7.00,0.00,7.89E-015,10.15,1.98,1,1,1,-7.00,7.00,7.32,12.98,0.00,3.96,3.96,314.04,TARP,DOE-2,79.26,0.00,0.00,0.00,6,0,0,Yes
 Zone Information, ZONE OFFICE OFFICELARGE DATA CENTER C  - STORY GROUND,0.0,7.32,7.00,0.00,-9.29,10.15,1.98,1,1,1,-11.58,-7.00,7.32,12.98,0.00,3.96,3.96,102.50,TARP,DOE-2,25.87,22.42,13.90,8.52,6,1,0,Yes
 Zone Information, ZONE OFFICE OFFICELARGE MAIN DATA CENTER A  - STORY GROUND,0.0,12.98,-11.58,0.00,9.29,15.78,1.98,1,1,1,7.00,11.58,12.98,18.58,0.00,3.96,3.96,101.46,TARP,DOE-2,25.61,22.19,13.76,8.43,6,1,0,Yes
 Zone Information, ZONE OFFICE OFFICELARGE MAIN DATA CENTER A END_B - STORY GROUND,0.0,18.58,-11.58,0.00,9.29,20.87,1.98,1,1,1,7.00,11.58,18.58,23.15,0.00,3.96,3.96,82.83,TARP,DOE-2,20.90,36.23,22.46,13.77,6,2,0,Yes
 Zone Information, ZONE OFFICE OFFICELARGE MAIN DATA CENTER B  - STORY GROUND,0.0,12.98,-7.00,0.00,6.21E-015,15.78,1.98,1,1,1,-7.00,7.00,12.98,18.58,0.00,3.96,3.96,310.85,TARP,DOE-2,78.45,0.00,0.00,0.00,6,0,0,Yes
 Zone Information, ZONE OFFICE OFFICELARGE MAIN DATA CENTER B END_B - STORY GROUND,0.0,18.58,-7.00,0.00,5.32E-015,20.87,1.98,1,1,1,-7.00,7.00,18.58,23.15,0.00,3.96,3.96,253.76,TARP,DOE-2,64.04,55.50,34.41,21.09,6,1,0,Yes
 Zone Information, ZONE OFFICE OFFICELARGE MAIN DATA CENTER C  - STORY GROUND,0.0,12.98,7.00,0.00,-9.29,15.78,1.98,1,1,1,-11.58,-7.00,12.98,18.58,0.00,3.96,3.96,101.46,TARP,DOE-2,25.61,22.19,13.76,8.43,6,1,0,Yes
 Zone Information, ZONE OFFICE OFFICELARGE MAIN DATA CENTER C END_B - STORY GROUND,0.0,18.58,7.00,0.00,-9.29,20.87,1.98,1,1,1,-11.58,-7.00,18.58,23.15,0.00,3.96,3.96,82.83,TARP,DOE-2,20.90,36.23,22.46,13.77,6,2,0,Yes
 Zone Information, ZONE OFFICE WHOLEBUILDING - LG OFFICE A  - STORY GROUND,0.0,-18.58,-11.58,0.00,9.29,-5.63,1.98,1,1,1,7.00,11.58,-18.58,7.32,0.00,3.96,3.96,469.20,TARP,DOE-2,118.41,102.62,63.63,39.00,6,1,0,Yes
 Zone Information, ZONE OFFICE WHOLEBUILDING - LG OFFICE A  - STORY MID,0.0,-18.58,-11.58,3.96,9.29,1.12E-014,5.94,1,1,1,7.00,11.58,-18.58,18.58,3.96,7.92,3.96,673.17,TARP,DOE-2,169.89,147.24,91.29,55.95,6,1,0,Yes
 Zone Information, ZONE OFFICE WHOLEBUILDING - LG OFFICE A  - STORY MID10,0.0,-18.58,-11.58,39.62,9.29,9.53E-015,41.61,1,1,1,7.00,11.58,-18.58,18.58,39.62,43.59,3.96,673.17,TARP,DOE-2,169.89,147.24,91.29,55.95,6,1,0,Yes
 Zone Information, ZONE OFFICE WHOLEBUILDING - LG OFFICE A  - STORY MID11,0.0,-18.58,-11.58,43.59,9.29,7.81E-015,45.57,1,1,1,7.00,11.58,-18.58,18.58,43.59,47.55,3.96,673.17,TARP,DOE-2,169.89,147.24,91.29,55.95,6,1,0,Yes
 Zone Information, ZONE OFFICE WHOLEBUILDING - LG OFFICE A  - STORY MID2,0.0,-18.58,-11.58,7.92,9.29,1.11E-014,9.91,1,1,1,7.00,11.58,-18.58,18.58,7.92,11.89,3.96,673.17,TARP,DOE-2,169.89,147.24,91.29,55.95,6,1,0,Yes
 Zone Information, ZONE OFFICE WHOLEBUILDING - LG OFFICE A  - STORY MID3,0.0,-18.58,-11.58,11.89,9.29,1.16E-014,13.87,1,1,1,7.00,11.58,-18.58,18.58,11.89,15.85,3.96,673.17,TARP,DOE-2,169.89,147.24,91.29,55.95,6,1,0,Yes
 Zone Information, ZONE OFFICE WHOLEBUILDING - LG OFFICE A  - STORY MID4,0.0,-18.58,-11.58,15.85,9.29,1.16E-014,17.83,1,1,1,7.00,11.58,-18.58,18.58,15.85,19.81,3.96,673.17,TARP,DOE-2,169.89,147.24,91.29,55.95,6,1,0,Yes
 Zone Information, ZONE OFFICE WHOLEBUILDING - LG OFFICE A  - STORY MID5,0.0,-18.58,-11.58,19.81,9.29,1.20E-014,21.79,1,1,1,7.00,11.58,-18.58,18.58,19.81,23.77,3.96,673.17,TARP,DOE-2,169.89,147.24,91.29,55.95,6,1,0,Yes
 Zone Information, ZONE OFFICE WHOLEBUILDING - LG OFFICE A  - STORY MID6,0.0,-18.58,-11.58,23.77,9.29,1.37E-014,25.76,1,1,1,7.00,11.58,-18.58,18.58,23.77,27.74,3.96,673.17,TARP,DOE-2,169.89,147.24,91.29,55.95,6,1,0,Yes
 Zone Information, ZONE OFFICE WHOLEBUILDING - LG OFFICE A  - STORY MID7,0.0,-18.58,-11.58,27.74,9.29,1.18E-014,29.72,1,1,1,7.00,11.58,-18.58,18.58,27.74,31.70,3.96,673.17,TARP,DOE-2,169.89,147.24,91.29,55.95,6,1,0,Yes
 Zone Information, ZONE OFFICE WHOLEBUILDING - LG OFFICE A  - STORY MID8,0.0,-18.58,-11.58,31.70,9.29,1.23E-014,33.68,1,1,1,7.00,11.58,-18.58,18.58,31.70,35.66,3.96,673.17,TARP,DOE-2,169.89,147.24,91.29,55.95,6,1,0,Yes
 Zone Information, ZONE OFFICE WHOLEBUILDING - LG OFFICE A  - STORY MID9,0.0,-18.58,-11.58,35.66,9.29,9.71E-015,37.64,1,1,1,7.00,11.58,-18.58,18.58,35.66,39.62,3.96,673.17,TARP,DOE-2,169.89,147.24,91.29,55.95,6,1,0,Yes
 Zone Information, ZONE OFFICE WHOLEBUILDING - LG OFFICE A  - STORY TOP,0.0,-18.58,-11.58,47.55,9.29,1.37E-014,49.53,1,1,1,7.00,11.58,-18.58,18.58,47.55,51.51,3.96,673.17,TARP,DOE-2,169.89,147.24,91.29,55.95,6,1,0,Yes
 Zone Information, ZONE OFFICE WHOLEBUILDING - LG OFFICE A END_A - STORY GROUND,0.0,-23.15,-11.58,0.00,9.29,-20.87,1.98,1,1,1,7.00,11.58,-23.15,-18.58,0.00,3.96,3.96,82.83,TARP,DOE-2,20.90,36.23,22.46,13.77,6,2,0,Yes
 Zone Information, ZONE OFFICE WHOLEBUILDING - LG OFFICE A END_A - STORY MID,0.0,-23.15,-11.58,3.96,9.29,-20.87,5.94,1,1,1,7.00,11.58,-23.15,-18.58,3.96,7.92,3.96,82.83,TARP,DOE-2,20.90,36.23,22.46,13.77,6,2,0,Yes
 Zone Information, ZONE OFFICE WHOLEBUILDING - LG OFFICE A END_A - STORY MID10,0.0,-23.15,-11.58,39.62,9.29,-20.87,41.61,1,1,1,7.00,11.58,-23.15,-18.58,39.62,43.59,3.96,82.83,TARP,DOE-2,20.90,36.23,22.46,13.77,6,2,0,Yes
 Zone Information, ZONE OFFICE WHOLEBUILDING - LG OFFICE A END_A - STORY MID11,0.0,-23.15,-11.58,43.59,9.29,-20.87,45.57,1,1,1,7.00,11.58,-23.15,-18.58,43.59,47.55,3.96,82.83,TARP,DOE-2,20.90,36.23,22.46,13.77,6,2,0,Yes
 Zone Information, ZONE OFFICE WHOLEBUILDING - LG OFFICE A END_A - STORY MID2,0.0,-23.15,-11.58,7.92,9.29,-20.87,9.91,1,1,1,7.00,11.58,-23.15,-18.58,7.92,11.89,3.96,82.83,TARP,DOE-2,20.90,36.23,22.46,13.77,6,2,0,Yes
 Zone Information, ZONE OFFICE WHOLEBUILDING - LG OFFICE A END_A - STORY MID3,0.0,-23.15,-11.58,11.89,9.29,-20.87,13.87,1,1,1,7.00,11.58,-23.15,-18.58,11.89,15.85,3.96,82.83,TARP,DOE-2,20.90,36.23,22.46,13.77,6,2,0,Yes
 Zone Information, ZONE OFFICE WHOLEBUILDING - LG OFFICE A END_A - STORY MID4,0.0,-23.15,-11.58,15.85,9.29,-20.87,17.83,1,1,1,7.00,11.58,-23.15,-18.58,15.85,19.81,3.96,82.83,TARP,DOE-2,20.90,36.23,22.46,13.77,6,2,0,Yes
 Zone Information, ZONE OFFICE WHOLEBUILDING - LG OFFICE A END_A - STORY MID5,0.0,-23.15,-11.58,19.81,9.29,-20.87,21.79,1,1,1,7.00,11.58,-23.15,-18.58,19.81,23.77,3.96,82.83,TARP,DOE-2,20.90,36.23,22.46,13.77,6,2,0,Yes
 Zone Information, ZONE OFFICE WHOLEBUILDING - LG OFFICE A END_A - STORY MID6,0.0,-23.15,-11.58,23.77,9.29,-20.87,25.76,1,1,1,7.00,11.58,-23.15,-18.58,23.77,27.74,3.96,82.83,TARP,DOE-2,20.90,36.23,22.46,13.77,6,2,0,Yes
 Zone Information, ZONE OFFICE WHOLEBUILDING - LG OFFICE A END_A - STORY MID7,0.0,-23.15,-11.58,27.74,9.29,-20.87,29.72,1,1,1,7.00,11.58,-23.15,-18.58,27.74,31.70,3.96,82.83,TARP,DOE-2,20.90,36.23,22.46,13.77,6,2,0,Yes
 Zone Information, ZONE OFFICE WHOLEBUILDING - LG OFFICE A END_A - STORY MID8,0.0,-23.15,-11.58,31.70,9.29,-20.87,33.68,1,1,1,7.00,11.58,-23.15,-18.58,31.70,35.66,3.96,82.83,TARP,DOE-2,20.90,36.23,22.46,13.77,6,2,0,Yes
 Zone Information, ZONE OFFICE WHOLEBUILDING - LG OFFICE A END_A - STORY MID9,0.0,-23.15,-11.58,35.66,9.29,-20.87,37.64,1,1,1,7.00,11.58,-23.15,-18.58,35.66,39.62,3.96,82.83,TARP,DOE-2,20.90,36.23,22.46,13.77,6,2,0,Yes
 Zone Information, ZONE OFFICE WHOLEBUILDING - LG OFFICE A END_A - STORY TOP,0.0,-23.15,-11.58,47.55,9.29,-20.87,49.53,1,1,1,7.00,11.58,-23.15,-18.58,47.55,51.51,3.96,82.83,TARP,DOE-2,20.90,36.23,22.46,13.77,6,2,0,Yes
 Zone Information, ZONE OFFICE WHOLEBUILDING - LG OFFICE A END_B - STORY MID,0.0,18.58,-11.58,3.96,9.29,20.87,5.94,1,1,1,7.00,11.58,18.58,23.15,3.96,7.92,3.96,82.83,TARP,DOE-2,20.90,36.23,22.46,13.77,6,2,0,Yes
 Zone Information, ZONE OFFICE WHOLEBUILDING - LG OFFICE A END_B - STORY MID10,0.0,18.58,-11.58,39.62,9.29,20.87,41.61,1,1,1,7.00,11.58,18.58,23.15,39.62,43.59,3.96,82.83,TARP,DOE-2,20.90,36.23,22.46,13.77,6,2,0,Yes
 Zone Information, ZONE OFFICE WHOLEBUILDING - LG OFFICE A END_B - STORY MID11,0.0,18.58,-11.58,43.59,9.29,20.87,45.57,1,1,1,7.00,11.58,18.58,23.15,43.59,47.55,3.96,82.83,TARP,DOE-2,20.90,36.23,22.46,13.77,6,2,0,Yes
 Zone Information, ZONE OFFICE WHOLEBUILDING - LG OFFICE A END_B - STORY MID2,0.0,18.58,-11.58,7.92,9.29,20.87,9.91,1,1,1,7.00,11.58,18.58,23.15,7.92,11.89,3.96,82.83,TARP,DOE-2,20.90,36.23,22.46,13.77,6,2,0,Yes
 Zone Information, ZONE OFFICE WHOLEBUILDING - LG OFFICE A END_B - STORY MID3,0.0,18.58,-11.58,11.89,9.29,20.87,13.87,1,1,1,7.00,11.58,18.58,23.15,11.89,15.85,3.96,82.83,TARP,DOE-2,20.90,36.23,22.46,13.77,6,2,0,Yes
 Zone Information, ZONE OFFICE WHOLEBUILDING - LG OFFICE A END_B - STORY MID4,0.0,18.58,-11.58,15.85,9.29,20.87,17.83,1,1,1,7.00,11.58,18.58,23.15,15.85,19.81,3.96,82.83,TARP,DOE-2,20.90,36.23,22.46,13.77,6,2,0,Yes
 Zone Information, ZONE OFFICE WHOLEBUILDING - LG OFFICE A END_B - STORY MID5,0.0,18.58,-11.58,19.81,9.29,20.87,21.79,1,1,1,7.00,11.58,18.58,23.15,19.81,23.77,3.96,82.83,TARP,DOE-2,20.90,36.23,22.46,13.77,6,2,0,Yes
 Zone Information, ZONE OFFICE WHOLEBUILDING - LG OFFICE A END_B - STORY MID6,0.0,18.58,-11.58,23.77,9.29,20.87,25.76,1,1,1,7.00,11.58,18.58,23.15,23.77,27.74,3.96,82.83,TARP,DOE-2,20.90,36.23,22.46,13.77,6,2,0,Yes
 Zone Information, ZONE OFFICE WHOLEBUILDING - LG OFFICE A END_B - STORY MID7,0.0,18.58,-11.58,27.74,9.29,20.87,29.72,1,1,1,7.00,11.58,18.58,23.15,27.74,31.70,3.96,82.83,TARP,DOE-2,20.90,36.23,22.46,13.77,6,2,0,Yes
 Zone Information, ZONE OFFICE WHOLEBUILDING - LG OFFICE A END_B - STORY MID8,0.0,18.58,-11.58,31.70,9.29,20.87,33.68,1,1,1,7.00,11.58,18.58,23.15,31.70,35.66,3.96,82.83,TARP,DOE-2,20.90,36.23,22.46,13.77,6,2,0,Yes
 Zone Information, ZONE OFFICE WHOLEBUILDING - LG OFFICE A END_B - STORY MID9,0.0,18.58,-11.58,35.66,9.29,20.87,37.64,1,1,1,7.00,11.58,18.58,23.15,35.66,39.62,3.96,82.83,TARP,DOE-2,20.90,36.23,22.46,13.77,6,2,0,Yes
 Zone Information, ZONE OFFICE WHOLEBUILDING - LG OFFICE A END_B - STORY TOP,0.0,18.58,-11.58,47.55,9.29,20.87,49.53,1,1,1,7.00,11.58,18.58,23.15,47.55,51.51,3.96,82.83,TARP,DOE-2,20.90,36.23,22.46,13.77,6,2,0,Yes
 Zone Information, ZONE OFFICE WHOLEBUILDING - LG OFFICE B  - STORY GROUND,0.0,-18.58,-7.00,0.00,1.03E-014,-5.63,1.98,1,1,1,-7.00,7.00,-18.58,7.32,0.00,3.96,3.96,1437.49,TARP,DOE-2,362.78,0.00,0.00,0.00,6,0,0,Yes
 Zone Information, ZONE OFFICE WHOLEBUILDING - LG OFFICE B  - STORY MID,0.0,-18.58,-7.00,3.96,9.00E-015,1.10E-014,5.94,1,1,1,-7.00,7.00,-18.58,18.58,3.96,7.92,3.96,2062.38,TARP,DOE-2,520.49,0.00,0.00,0.00,6,0,0,Yes
 Zone Information, ZONE OFFICE WHOLEBUILDING - LG OFFICE B  - STORY MID10,0.0,-18.58,-7.00,39.62,9.16E-015,1.14E-014,41.61,1,1,1,-7.00,7.00,-18.58,18.58,39.62,43.59,3.96,2062.38,TARP,DOE-2,520.49,0.00,0.00,0.00,6,0,0,Yes
 Zone Information, ZONE OFFICE WHOLEBUILDING - LG OFFICE B  - STORY MID11,0.0,-18.58,-7.00,43.59,8.84E-015,1.02E-014,45.57,1,1,1,-7.00,7.00,-18.58,18.58,43.59,47.55,3.96,2062.38,TARP,DOE-2,520.49,0.00,0.00,0.00,6,0,0,Yes
 Zone Information, ZONE OFFICE WHOLEBUILDING - LG OFFICE B  - STORY MID2,0.0,-18.58,-7.00,7.92,9.00E-015,1.10E-014,9.91,1,1,1,-7.00,7.00,-18.58,18.58,7.92,11.89,3.96,2062.38,TARP,DOE-2,520.49,0.00,0.00,0.00,6,0,0,Yes
 Zone Information, ZONE OFFICE WHOLEBUILDING - LG OFFICE B  - STORY MID3,0.0,-18.58,-7.00,11.89,9.00E-015,1.16E-014,13.87,1,1,1,-7.00,7.00,-18.58,18.58,11.89,15.85,3.96,2062.38,TARP,DOE-2,520.49,0.00,0.00,0.00,6,0,0,Yes
 Zone Information, ZONE OFFICE WHOLEBUILDING - LG OFFICE B  - STORY MID4,0.0,-18.58,-7.00,15.85,8.84E-015,1.07E-014,17.83,1,1,1,-7.00,7.00,-18.58,18.58,15.85,19.81,3.96,2062.38,TARP,DOE-2,520.49,0.00,0.00,0.00,6,0,0,Yes
 Zone Information, ZONE OFFICE WHOLEBUILDING - LG OFFICE B  - STORY MID5,0.0,-18.58,-7.00,19.81,9.16E-015,1.13E-014,21.79,1,1,1,-7.00,7.00,-18.58,18.58,19.81,23.77,3.96,2062.38,TARP,DOE-2,520.49,0.00,0.00,0.00,6,0,0,Yes
 Zone Information, ZONE OFFICE WHOLEBUILDING - LG OFFICE B  - STORY MID6,0.0,-18.58,-7.00,23.77,9.16E-015,1.11E-014,25.76,1,1,1,-7.00,7.00,-18.58,18.58,23.77,27.74,3.96,2062.38,TARP,DOE-2,520.49,0.00,0.00,0.00,6,0,0,Yes
 Zone Information, ZONE OFFICE WHOLEBUILDING - LG OFFICE B  - STORY MID7,0.0,-18.58,-7.00,27.74,9.00E-015,1.03E-014,29.72,1,1,1,-7.00,7.00,-18.58,18.58,27.74,31.70,3.96,2062.38,TARP,DOE-2,520.49,0.00,0.00,0.00,6,0,0,Yes
 Zone Information, ZONE OFFICE WHOLEBUILDING - LG OFFICE B  - STORY MID8,0.0,-18.58,-7.00,31.70,8.84E-015,1.14E-014,33.68,1,1,1,-7.00,7.00,-18.58,18.58,31.70,35.66,3.96,2062.38,TARP,DOE-2,520.49,0.00,0.00,0.00,6,0,0,Yes
 Zone Information, ZONE OFFICE WHOLEBUILDING - LG OFFICE B  - STORY MID9,0.0,-18.58,-7.00,35.66,9.31E-015,1.07E-014,37.64,1,1,1,-7.00,7.00,-18.58,18.58,35.66,39.62,3.96,2062.38,TARP,DOE-2,520.49,0.00,0.00,0.00,6,0,0,Yes
 Zone Information, ZONE OFFICE WHOLEBUILDING - LG OFFICE B  - STORY TOP,0.0,-18.58,-7.00,47.55,9.16E-015,1.24E-014,49.53,1,1,1,-7.00,7.00,-18.58,18.58,47.55,51.51,3.96,2062.38,TARP,DOE-2,520.49,0.00,0.00,0.00,6,0,0,Yes
 Zone Information, ZONE OFFICE WHOLEBUILDING - LG OFFICE B END_A - STORY GROUND,0.0,-23.15,-7.00,0.00,1.34E-014,-20.87,1.98,1,1,1,-7.00,7.00,-23.15,-18.58,0.00,3.96,3.96,253.76,TARP,DOE-2,64.04,55.50,34.41,21.09,6,1,0,Yes
 Zone Information, ZONE OFFICE WHOLEBUILDING - LG OFFICE B END_A - STORY MID,0.0,-23.15,-7.00,3.96,1.36E-014,-20.87,5.94,1,1,1,-7.00,7.00,-23.15,-18.58,3.96,7.92,3.96,253.76,TARP,DOE-2,64.04,55.50,34.41,21.09,6,1,0,Yes
 Zone Information, ZONE OFFICE WHOLEBUILDING - LG OFFICE B END_A - STORY MID10,0.0,-23.15,-7.00,39.62,1.27E-014,-20.87,41.61,1,1,1,-7.00,7.00,-23.15,-18.58,39.62,43.59,3.96,253.76,TARP,DOE-2,64.04,55.50,34.41,21.09,6,1,0,Yes
 Zone Information, ZONE OFFICE WHOLEBUILDING - LG OFFICE B END_A - STORY MID11,0.0,-23.15,-7.00,43.59,1.34E-014,-20.87,45.57,1,1,1,-7.00,7.00,-23.15,-18.58,43.59,47.55,3.96,253.76,TARP,DOE-2,64.04,55.50,34.41,21.09,6,1,0,Yes
 Zone Information, ZONE OFFICE WHOLEBUILDING - LG OFFICE B END_A - STORY MID2,0.0,-23.15,-7.00,7.92,1.35E-014,-20.87,9.91,1,1,1,-7.00,7.00,-23.15,-18.58,7.92,11.89,3.96,253.76,TARP,DOE-2,64.04,55.50,34.41,21.09,6,1,0,Yes
 Zone Information, ZONE OFFICE WHOLEBUILDING - LG OFFICE B END_A - STORY MID3,0.0,-23.15,-7.00,11.89,1.35E-014,-20.87,13.87,1,1,1,-7.00,7.00,-23.15,-18.58,11.89,15.85,3.96,253.76,TARP,DOE-2,64.04,55.50,34.41,21.09,6,1,0,Yes
 Zone Information, ZONE OFFICE WHOLEBUILDING - LG OFFICE B END_A - STORY MID4,0.0,-23.15,-7.00,15.85,1.32E-014,-20.87,17.83,1,1,1,-7.00,7.00,-23.15,-18.58,15.85,19.81,3.96,253.76,TARP,DOE-2,64.04,55.50,34.41,21.09,6,1,0,Yes
 Zone Information, ZONE OFFICE WHOLEBUILDING - LG OFFICE B END_A - STORY MID5,0.0,-23.15,-7.00,19.81,1.24E-014,-20.87,21.79,1,1,1,-7.00,7.00,-23.15,-18.58,19.81,23.77,3.96,253.76,TARP,DOE-2,64.04,55.50,34.41,21.09,6,1,0,Yes
 Zone Information, ZONE OFFICE WHOLEBUILDING - LG OFFICE B END_A - STORY MID6,0.0,-23.15,-7.00,23.77,1.24E-014,-20.87,25.76,1,1,1,-7.00,7.00,-23.15,-18.58,23.77,27.74,3.96,253.76,TARP,DOE-2,64.04,55.50,34.41,21.09,6,1,0,Yes
 Zone Information, ZONE OFFICE WHOLEBUILDING - LG OFFICE B END_A - STORY MID7,0.0,-23.15,-7.00,27.74,1.24E-014,-20.87,29.72,1,1,1,-7.00,7.00,-23.15,-18.58,27.74,31.70,3.96,253.76,TARP,DOE-2,64.04,55.50,34.41,21.09,6,1,0,Yes
 Zone Information, ZONE OFFICE WHOLEBUILDING - LG OFFICE B END_A - STORY MID8,0.0,-23.15,-7.00,31.70,1.37E-014,-20.87,33.68,1,1,1,-7.00,7.00,-23.15,-18.58,31.70,35.66,3.96,253.76,TARP,DOE-2,64.04,55.50,34.41,21.09,6,1,0,Yes
 Zone Information, ZONE OFFICE WHOLEBUILDING - LG OFFICE B END_A - STORY MID9,0.0,-23.15,-7.00,35.66,1.39E-014,-20.87,37.64,1,1,1,-7.00,7.00,-23.15,-18.58,35.66,39.62,3.96,253.76,TARP,DOE-2,64.04,55.50,34.41,21.09,6,1,0,Yes
 Zone Information, ZONE OFFICE WHOLEBUILDING - LG OFFICE B END_A - STORY TOP,0.0,-23.15,-7.00,47.55,1.27E-014,-20.87,49.53,1,1,1,-7.00,7.00,-23.15,-18.58,47.55,51.51,3.96,253.76,TARP,DOE-2,64.04,55.50,34.41,21.09,6,1,0,Yes
 Zone Information, ZONE OFFICE WHOLEBUILDING - LG OFFICE B END_B - STORY MID,0.0,18.58,-7.00,3.96,5.89E-015,20.87,5.94,1,1,1,-7.00,7.00,18.58,23.15,3.96,7.92,3.96,253.76,TARP,DOE-2,64.04,55.50,34.41,21.09,6,1,0,Yes
 Zone Information, ZONE OFFICE WHOLEBUILDING - LG OFFICE B END_B - STORY MID10,0.0,18.58,-7.00,39.62,6.40E-015,20.87,41.61,1,1,1,-7.00,7.00,18.58,23.15,39.62,43.59,3.96,253.76,TARP,DOE-2,64.04,55.50,34.41,21.09,6,1,0,Yes
 Zone Information, ZONE OFFICE WHOLEBUILDING - LG OFFICE B END_B - STORY MID11,0.0,18.58,-7.00,43.59,6.87E-015,20.87,45.57,1,1,1,-7.00,7.00,18.58,23.15,43.59,47.55,3.96,253.76,TARP,DOE-2,64.04,55.50,34.41,21.09,6,1,0,Yes
 Zone Information, ZONE OFFICE WHOLEBUILDING - LG OFFICE B END_B - STORY MID2,0.0,18.58,-7.00,7.92,5.89E-015,20.87,9.91,1,1,1,-7.00,7.00,18.58,23.15,7.92,11.89,3.96,253.76,TARP,DOE-2,64.04,55.50,34.41,21.09,6,1,0,Yes
 Zone Information, ZONE OFFICE WHOLEBUILDING - LG OFFICE B END_B - STORY MID3,0.0,18.58,-7.00,11.89,5.89E-015,20.87,13.87,1,1,1,-7.00,7.00,18.58,23.15,11.89,15.85,3.96,253.76,TARP,DOE-2,64.04,55.50,34.41,21.09,6,1,0,Yes
 Zone Information, ZONE OFFICE WHOLEBUILDING - LG OFFICE B END_B - STORY MID4,0.0,18.58,-7.00,15.85,6.04E-015,20.87,17.83,1,1,1,-7.00,7.00,18.58,23.15,15.85,19.81,3.96,253.76,TARP,DOE-2,64.04,55.50,34.41,21.09,6,1,0,Yes
 Zone Information, ZONE OFFICE WHOLEBUILDING - LG OFFICE B END_B - STORY MID5,0.0,18.58,-7.00,19.81,5.83E-015,20.87,21.79,1,1,1,-7.00,7.00,18.58,23.15,19.81,23.77,3.96,253.76,TARP,DOE-2,64.04,55.50,34.41,21.09,6,1,0,Yes
 Zone Information, ZONE OFFICE WHOLEBUILDING - LG OFFICE B END_B - STORY MID6,0.0,18.58,-7.00,23.77,6.14E-015,20.87,25.76,1,1,1,-7.00,7.00,18.58,23.15,23.77,27.74,3.96,253.76,TARP,DOE-2,64.04,55.50,34.41,21.09,6,1,0,Yes
 Zone Information, ZONE OFFICE WHOLEBUILDING - LG OFFICE B END_B - STORY MID7,0.0,18.58,-7.00,27.74,6.04E-015,20.87,29.72,1,1,1,-7.00,7.00,18.58,23.15,27.74,31.70,3.96,253.76,TARP,DOE-2,64.04,55.50,34.41,21.09,6,1,0,Yes
 Zone Information, ZONE OFFICE WHOLEBUILDING - LG OFFICE B END_B - STORY MID8,0.0,18.58,-7.00,31.70,5.78E-015,20.87,33.68,1,1,1,-7.00,7.00,18.58,23.15,31.70,35.66,3.96,253.76,TARP,DOE-2,64.04,55.50,34.41,21.09,6,1,0,Yes
 Zone Information, ZONE OFFICE WHOLEBUILDING - LG OFFICE B END_B - STORY MID9,0.0,18.58,-7.00,35.66,6.04E-015,20.87,37.64,1,1,1,-7.00,7.00,18.58,23.15,35.66,39.62,3.96,253.76,TARP,DOE-2,64.04,55.50,34.41,21.09,6,1,0,Yes
 Zone Information, ZONE OFFICE WHOLEBUILDING - LG OFFICE B END_B - STORY TOP,0.0,18.58,-7.00,47.55,5.89E-015,20.87,49.53,1,1,1,-7.00,7.00,18.58,23.15,47.55,51.51,3.96,253.76,TARP,DOE-2,64.04,55.50,34.41,21.09,6,1,0,Yes
 Zone Information, ZONE OFFICE WHOLEBUILDING - LG OFFICE C  - STORY GROUND,0.0,-18.58,7.00,0.00,-9.29,-5.63,1.98,1,1,1,-11.58,-7.00,-18.58,7.32,0.00,3.96,3.96,469.20,TARP,DOE-2,118.41,102.62,63.63,39.00,6,1,0,Yes
 Zone Information, ZONE OFFICE WHOLEBUILDING - LG OFFICE C  - STORY MID,0.0,-18.58,7.00,3.96,-9.29,8.85E-015,5.94,1,1,1,-11.58,-7.00,-18.58,18.58,3.96,7.92,3.96,673.17,TARP,DOE-2,169.89,147.24,91.29,55.95,6,1,0,Yes
 Zone Information, ZONE OFFICE WHOLEBUILDING - LG OFFICE C  - STORY MID10,0.0,-18.58,7.00,39.62,-9.29,1.01E-014,41.61,1,1,1,-11.58,-7.00,-18.58,18.58,39.62,43.59,3.96,673.17,TARP,DOE-2,169.89,147.24,91.29,55.95,6,1,0,Yes
 Zone Information, ZONE OFFICE WHOLEBUILDING - LG OFFICE C  - STORY MID11,0.0,-18.58,7.00,43.59,-9.29,1.40E-014,45.57,1,1,1,-11.58,-7.00,-18.58,18.58,43.59,47.55,3.96,673.17,TARP,DOE-2,169.89,147.24,91.29,55.95,6,1,0,Yes
 Zone Information, ZONE OFFICE WHOLEBUILDING - LG OFFICE C  - STORY MID2,0.0,-18.58,7.00,7.92,-9.29,9.02E-015,9.91,1,1,1,-11.58,-7.00,-18.58,18.58,7.92,11.89,3.96,673.17,TARP,DOE-2,169.89,147.24,91.29,55.95,6,1,0,Yes
 Zone Information, ZONE OFFICE WHOLEBUILDING - LG OFFICE C  - STORY MID3,0.0,-18.58,7.00,11.89,-9.29,9.02E-015,13.87,1,1,1,-11.58,-7.00,-18.58,18.58,11.89,15.85,3.96,673.17,TARP,DOE-2,169.89,147.24,91.29,55.95,6,1,0,Yes
 Zone Information, ZONE OFFICE WHOLEBUILDING - LG OFFICE C  - STORY MID4,0.0,-18.58,7.00,15.85,-9.29,8.09E-015,17.83,1,1,1,-11.58,-7.00,-18.58,18.58,15.85,19.81,3.96,673.17,TARP,DOE-2,169.89,147.24,91.29,55.95,6,1,0,Yes
 Zone Information, ZONE OFFICE WHOLEBUILDING - LG OFFICE C  - STORY MID5,0.0,-18.58,7.00,19.81,-9.29,9.19E-015,21.79,1,1,1,-11.58,-7.00,-18.58,18.58,19.81,23.77,3.96,673.17,TARP,DOE-2,169.89,147.24,91.29,55.95,6,1,0,Yes
 Zone Information, ZONE OFFICE WHOLEBUILDING - LG OFFICE C  - STORY MID6,0.0,-18.58,7.00,23.77,-9.29,7.99E-015,25.76,1,1,1,-11.58,-7.00,-18.58,18.58,23.77,27.74,3.96,673.17,TARP,DOE-2,169.89,147.24,91.29,55.95,6,1,0,Yes
 Zone Information, ZONE OFFICE WHOLEBUILDING - LG OFFICE C  - STORY MID7,0.0,-18.58,7.00,27.74,-9.29,8.29E-015,29.72,1,1,1,-11.58,-7.00,-18.58,18.58,27.74,31.70,3.96,673.17,TARP,DOE-2,169.89,147.24,91.29,55.95,6,1,0,Yes
 Zone Information, ZONE OFFICE WHOLEBUILDING - LG OFFICE C  - STORY MID8,0.0,-18.58,7.00,31.70,-9.29,1.00E-014,33.68,1,1,1,-11.58,-7.00,-18.58,18.58,31.70,35.66,3.96,673.17,TARP,DOE-2,169.89,147.24,91.29,55.95,6,1,0,Yes
 Zone Information, ZONE OFFICE WHOLEBUILDING - LG OFFICE C  - STORY MID9,0.0,-18.58,7.00,35.66,-9.29,1.28E-014,37.64,1,1,1,-11.58,-7.00,-18.58,18.58,35.66,39.62,3.96,673.17,TARP,DOE-2,169.89,147.24,91.29,55.95,6,1,0,Yes
 Zone Information, ZONE OFFICE WHOLEBUILDING - LG OFFICE C  - STORY TOP,0.0,-18.58,7.00,47.55,-9.29,7.66E-015,49.53,1,1,1,-11.58,-7.00,-18.58,18.58,47.55,51.51,3.96,673.17,TARP,DOE-2,169.89,147.24,91.29,55.95,6,1,0,Yes
 Zone Information, ZONE OFFICE WHOLEBUILDING - LG OFFICE C END_A - STORY GROUND,0.0,-23.15,7.00,0.00,-9.29,-20.87,1.98,1,1,1,-11.58,-7.00,-23.15,-18.58,0.00,3.96,3.96,82.83,TARP,DOE-2,20.90,36.23,22.46,13.77,6,2,0,Yes
 Zone Information, ZONE OFFICE WHOLEBUILDING - LG OFFICE C END_A - STORY MID,0.0,-23.15,7.00,3.96,-9.29,-20.87,5.94,1,1,1,-11.58,-7.00,-23.15,-18.58,3.96,7.92,3.96,82.83,TARP,DOE-2,20.90,36.23,22.46,13.77,6,2,0,Yes
 Zone Information, ZONE OFFICE WHOLEBUILDING - LG OFFICE C END_A - STORY MID10,0.0,-23.15,7.00,39.62,-9.29,-20.87,41.61,1,1,1,-11.58,-7.00,-23.15,-18.58,39.62,43.59,3.96,82.83,TARP,DOE-2,20.90,36.23,22.46,13.77,6,2,0,Yes
 Zone Information, ZONE OFFICE WHOLEBUILDING - LG OFFICE C END_A - STORY MID11,0.0,-23.15,7.00,43.59,-9.29,-20.87,45.57,1,1,1,-11.58,-7.00,-23.15,-18.58,43.59,47.55,3.96,82.83,TARP,DOE-2,20.90,36.23,22.46,13.77,6,2,0,Yes
 Zone Information, ZONE OFFICE WHOLEBUILDING - LG OFFICE C END_A - STORY MID2,0.0,-23.15,7.00,7.92,-9.29,-20.87,9.91,1,1,1,-11.58,-7.00,-23.15,-18.58,7.92,11.89,3.96,82.83,TARP,DOE-2,20.90,36.23,22.46,13.77,6,2,0,Yes
 Zone Information, ZONE OFFICE WHOLEBUILDING - LG OFFICE C END_A - STORY MID3,0.0,-23.15,7.00,11.89,-9.29,-20.87,13.87,1,1,1,-11.58,-7.00,-23.15,-18.58,11.89,15.85,3.96,82.83,TARP,DOE-2,20.90,36.23,22.46,13.77,6,2,0,Yes
 Zone Information, ZONE OFFICE WHOLEBUILDING - LG OFFICE C END_A - STORY MID4,0.0,-23.15,7.00,15.85,-9.29,-20.87,17.83,1,1,1,-11.58,-7.00,-23.15,-18.58,15.85,19.81,3.96,82.83,TARP,DOE-2,20.90,36.23,22.46,13.77,6,2,0,Yes
 Zone Information, ZONE OFFICE WHOLEBUILDING - LG OFFICE C END_A - STORY MID5,0.0,-23.15,7.00,19.81,-9.29,-20.87,21.79,1,1,1,-11.58,-7.00,-23.15,-18.58,19.81,23.77,3.96,82.83,TARP,DOE-2,20.90,36.23,22.46,13.77,6,2,0,Yes
 Zone Information, ZONE OFFICE WHOLEBUILDING - LG OFFICE C END_A - STORY MID6,0.0,-23.15,7.00,23.77,-9.29,-20.87,25.76,1,1,1,-11.58,-7.00,-23.15,-18.58,23.77,27.74,3.96,82.83,TARP,DOE-2,20.90,36.23,22.46,13.77,6,2,0,Yes
 Zone Information, ZONE OFFICE WHOLEBUILDING - LG OFFICE C END_A - STORY MID7,0.0,-23.15,7.00,27.74,-9.29,-20.87,29.72,1,1,1,-11.58,-7.00,-23.15,-18.58,27.74,31.70,3.96,82.83,TARP,DOE-2,20.90,36.23,22.46,13.77,6,2,0,Yes
 Zone Information, ZONE OFFICE WHOLEBUILDING - LG OFFICE C END_A - STORY MID8,0.0,-23.15,7.00,31.70,-9.29,-20.87,33.68,1,1,1,-11.58,-7.00,-23.15,-18.58,31.70,35.66,3.96,82.83,TARP,DOE-2,20.90,36.23,22.46,13.77,6,2,0,Yes
 Zone Information, ZONE OFFICE WHOLEBUILDING - LG OFFICE C END_A - STORY MID9,0.0,-23.15,7.00,35.66,-9.29,-20.87,37.64,1,1,1,-11.58,-7.00,-23.15,-18.58,35.66,39.62,3.96,82.83,TARP,DOE-2,20.90,36.23,22.46,13.77,6,2,0,Yes
 Zone Information, ZONE OFFICE WHOLEBUILDING - LG OFFICE C END_A - STORY TOP,0.0,-23.15,7.00,47.55,-9.29,-20.87,49.53,1,1,1,-11.58,-7.00,-23.15,-18.58,47.55,51.51,3.96,82.83,TARP,DOE-2,20.90,36.23,22.46,13.77,6,2,0,Yes
 Zone Information, ZONE OFFICE WHOLEBUILDING - LG OFFICE C END_B - STORY MID,0.0,18.58,7.00,3.96,-9.29,20.87,5.94,1,1,1,-11.58,-7.00,18.58,23.15,3.96,7.92,3.96,82.83,TARP,DOE-2,20.90,36.23,22.46,13.77,6,2,0,Yes
 Zone Information, ZONE OFFICE WHOLEBUILDING - LG OFFICE C END_B - STORY MID10,0.0,18.58,7.00,39.62,-9.29,20.87,41.61,1,1,1,-11.58,-7.00,18.58,23.15,39.62,43.59,3.96,82.83,TARP,DOE-2,20.90,36.23,22.46,13.77,6,2,0,Yes
 Zone Information, ZONE OFFICE WHOLEBUILDING - LG OFFICE C END_B - STORY MID11,0.0,18.58,7.00,43.59,-9.29,20.87,45.57,1,1,1,-11.58,-7.00,18.58,23.15,43.59,47.55,3.96,82.83,TARP,DOE-2,20.90,36.23,22.46,13.77,6,2,0,Yes
 Zone Information, ZONE OFFICE WHOLEBUILDING - LG OFFICE C END_B - STORY MID2,0.0,18.58,7.00,7.92,-9.29,20.87,9.91,1,1,1,-11.58,-7.00,18.58,23.15,7.92,11.89,3.96,82.83,TARP,DOE-2,20.90,36.23,22.46,13.77,6,2,0,Yes
 Zone Information, ZONE OFFICE WHOLEBUILDING - LG OFFICE C END_B - STORY MID3,0.0,18.58,7.00,11.89,-9.29,20.87,13.87,1,1,1,-11.58,-7.00,18.58,23.15,11.89,15.85,3.96,82.83,TARP,DOE-2,20.90,36.23,22.46,13.77,6,2,0,Yes
 Zone Information, ZONE OFFICE WHOLEBUILDING - LG OFFICE C END_B - STORY MID4,0.0,18.58,7.00,15.85,-9.29,20.87,17.83,1,1,1,-11.58,-7.00,18.58,23.15,15.85,19.81,3.96,82.83,TARP,DOE-2,20.90,36.23,22.46,13.77,6,2,0,Yes
 Zone Information, ZONE OFFICE WHOLEBUILDING - LG OFFICE C END_B - STORY MID5,0.0,18.58,7.00,19.81,-9.29,20.87,21.79,1,1,1,-11.58,-7.00,18.58,23.15,19.81,23.77,3.96,82.83,TARP,DOE-2,20.90,36.23,22.46,13.77,6,2,0,Yes
 Zone Information, ZONE OFFICE WHOLEBUILDING - LG OFFICE C END_B - STORY MID6,0.0,18.58,7.00,23.77,-9.29,20.87,25.76,1,1,1,-11.58,-7.00,18.58,23.15,23.77,27.74,3.96,82.83,TARP,DOE-2,20.90,36.23,22.46,13.77,6,2,0,Yes
 Zone Information, ZONE OFFICE WHOLEBUILDING - LG OFFICE C END_B - STORY MID7,0.0,18.58,7.00,27.74,-9.29,20.87,29.72,1,1,1,-11.58,-7.00,18.58,23.15,27.74,31.70,3.96,82.83,TARP,DOE-2,20.90,36.23,22.46,13.77,6,2,0,Yes
 Zone Information, ZONE OFFICE WHOLEBUILDING - LG OFFICE C END_B - STORY MID8,0.0,18.58,7.00,31.70,-9.29,20.87,33.68,1,1,1,-11.58,-7.00,18.58,23.15,31.70,35.66,3.96,82.83,TARP,DOE-2,20.90,36.23,22.46,13.77,6,2,0,Yes
 Zone Information, ZONE OFFICE WHOLEBUILDING - LG OFFICE C END_B - STORY MID9,0.0,18.58,7.00,35.66,-9.29,20.87,37.64,1,1,1,-11.58,-7.00,18.58,23.15,35.66,39.62,3.96,82.83,TARP,DOE-2,20.90,36.23,22.46,13.77,6,2,0,Yes
 Zone Information, ZONE OFFICE WHOLEBUILDING - LG OFFICE C END_B - STORY TOP,0.0,18.58,7.00,47.55,-9.29,20.87,49.53,1,1,1,-11.58,-7.00,18.58,23.15,47.55,51.51,3.96,82.83,TARP,DOE-2,20.90,36.23,22.46,13.77,6,2,0,Yes
! <Zone Internal Gains Nominal>,Zone Name, Floor Area {m2},# Occupants,Area per Occupant {m2/person},Occupant per Area {person/m2},Interior Lighting {W/m2},Electric Load {W/m2},Gas Load {W/m2},Other Load {W/m2},Hot Water Eq {W/m2},Steam Equipment {W/m2},Sum Loads per Area {W/m2},Outdoor Controlled Baseboard Heat
 Zone Internal Gains Nominal, ZONE OFFICE OFFICELARGE DATA CENTER A  - STORY GROUND,25.87,0.0,N/A,0.000,5.101,215.278,0.000,0.000,0.000,0.000,220.379,No
 Zone Internal Gains Nominal, ZONE OFFICE OFFICELARGE DATA CENTER B  - STORY GROUND,79.26,0.0,N/A,0.000,5.101,215.278,0.000,0.000,0.000,0.000,220.379,No
 Zone Internal Gains Nominal, ZONE OFFICE OFFICELARGE DATA CENTER C  - STORY GROUND,25.87,0.0,N/A,0.000,5.101,215.278,0.000,0.000,0.000,0.000,220.379,No
 Zone Internal Gains Nominal, ZONE OFFICE OFFICELARGE MAIN DATA CENTER A  - STORY GROUND,25.61,0.0,N/A,0.000,5.101,484.376,0.000,0.000,0.000,0.000,489.477,No
 Zone Internal Gains Nominal, ZONE OFFICE OFFICELARGE MAIN DATA CENTER A END_B - STORY GROUND,20.90,0.0,N/A,0.000,5.101,484.376,0.000,0.000,0.000,0.000,489.477,No
 Zone Internal Gains Nominal, ZONE OFFICE OFFICELARGE MAIN DATA CENTER B  - STORY GROUND,78.45,0.0,N/A,0.000,5.101,484.376,0.000,0.000,0.000,0.000,489.477,No
 Zone Internal Gains Nominal, ZONE OFFICE OFFICELARGE MAIN DATA CENTER B END_B - STORY GROUND,64.04,0.0,N/A,0.000,5.101,484.376,0.000,0.000,0.000,0.000,489.477,No
 Zone Internal Gains Nominal, ZONE OFFICE OFFICELARGE MAIN DATA CENTER C  - STORY GROUND,25.61,0.0,N/A,0.000,5.101,484.376,0.000,0.000,0.000,0.000,489.477,No
 Zone Internal Gains Nominal, ZONE OFFICE OFFICELARGE MAIN DATA CENTER C END_B - STORY GROUND,20.90,0.0,N/A,0.000,5.101,484.376,0.000,0.000,0.000,0.000,489.477,No
 Zone Internal Gains Nominal, ZONE OFFICE WHOLEBUILDING - LG OFFICE A  - STORY GROUND,118.41,6.4,18.581,5.382E-002,8.742,8.073,0.000,0.000,0.000,0.000,16.815,No
 Zone Internal Gains Nominal, ZONE OFFICE WHOLEBUILDING - LG OFFICE A  - STORY MID,169.89,9.1,18.581,5.382E-002,8.742,8.073,0.000,0.000,0.000,0.000,16.815,No
 Zone Internal Gains Nominal, ZONE OFFICE WHOLEBUILDING - LG OFFICE A  - STORY MID10,169.89,9.1,18.581,5.382E-002,8.742,8.073,0.000,0.000,0.000,0.000,16.815,No
 Zone Internal Gains Nominal, ZONE OFFICE WHOLEBUILDING - LG OFFICE A  - STORY MID11,169.89,9.1,18.581,5.382E-002,8.742,8.073,0.000,0.000,0.000,0.000,16.815,No
 Zone Internal Gains Nominal, ZONE OFFICE WHOLEBUILDING - LG OFFICE A  - STORY MID2,169.89,9.1,18.581,5.382E-002,8.742,8.073,0.000,0.000,0.000,0.000,16.815,No
 Zone Internal Gains Nominal, ZONE OFFICE WHOLEBUILDING - LG OFFICE A  - STORY MID3,169.89,9.1,18.581,5.382E-002,8.742,8.073,0.000,0.000,0.000,0.000,16.815,No
 Zone Internal Gains Nominal, ZONE OFFICE WHOLEBUILDING - LG OFFICE A  - STORY MID4,169.89,9.1,18.581,5.382E-002,8.742,8.073,0.000,0.000,0.000,0.000,16.815,No
 Zone Internal Gains Nominal, ZONE OFFICE WHOLEBUILDING - LG OFFICE A  - STORY MID5,169.89,9.1,18.581,5.382E-002,8.742,8.073,0.000,0.000,0.000,0.000,16.815,No
 Zone Internal Gains Nominal, ZONE OFFICE WHOLEBUILDING - LG OFFICE A  - STORY MID6,169.89,9.1,18.581,5.382E-002,8.742,8.073,0.000,0.000,0.000,0.000,16.815,No
 Zone Internal Gains Nominal, ZONE OFFICE WHOLEBUILDING - LG OFFICE A  - STORY MID7,169.89,9.1,18.581,5.382E-002,8.742,8.073,0.000,0.000,0.000,0.000,16.815,No
 Zone Internal Gains Nominal, ZONE OFFICE WHOLEBUILDING - LG OFFICE A  - STORY MID8,169.89,9.1,18.581,5.382E-002,8.742,8.073,0.000,0.000,0.000,0.000,16.815,No
 Zone Internal Gains Nominal, ZONE OFFICE WHOLEBUILDING - LG OFFICE A  - STORY MID9,169.89,9.1,18.581,5.382E-002,8.742,8.073,0.000,0.000,0.000,0.000,16.815,No
 Zone Internal Gains Nominal, ZONE OFFICE WHOLEBUILDING - LG OFFICE A  - STORY TOP,169.89,9.1,18.581,5.382E-002,8.742,8.073,0.000,0.000,0.000,0.000,16.815,No
 Zone Internal Gains Nominal, ZONE OFFICE WHOLEBUILDING - LG OFFICE A END_A - STORY GROUND,20.90,1.1,18.581,5.382E-002,8.742,8.073,0.000,0.000,0.000,0.000,16.815,No
 Zone Internal Gains Nominal, ZONE OFFICE WHOLEBUILDING - LG OFFICE A END_A - STORY MID,20.90,1.1,18.581,5.382E-002,8.742,8.073,0.000,0.000,0.000,0.000,16.815,No
 Zone Internal Gains Nominal, ZONE OFFICE WHOLEBUILDING - LG OFFICE A END_A - STORY MID10,20.90,1.1,18.581,5.382E-002,8.742,8.073,0.000,0.000,0.000,0.000,16.815,No
 Zone Internal Gains Nominal, ZONE OFFICE WHOLEBUILDING - LG OFFICE A END_A - STORY MID11,20.90,1.1,18.581,5.382E-002,8.742,8.073,0.000,0.000,0.000,0.000,16.815,No
 Zone Internal Gains Nominal, ZONE OFFICE WHOLEBUILDING - LG OFFICE A END_A - STORY MID2,20.90,1.1,18.581,5.382E-002,8.742,8.073,0.000,0.000,0.000,0.000,16.815,No
 Zone Internal Gains Nominal, ZONE OFFICE WHOLEBUILDING - LG OFFICE A END_A - STORY MID3,20.90,1.1,18.581,5.382E-002,8.742,8.073,0.000,0.000,0.000,0.000,16.815,No
 Zone Internal Gains Nominal, ZONE OFFICE WHOLEBUILDING - LG OFFICE A END_A - STORY MID4,20.90,1.1,18.581,5.382E-002,8.742,8.073,0.000,0.000,0.000,0.000,16.815,No
 Zone Internal Gains Nominal, ZONE OFFICE WHOLEBUILDING - LG OFFICE A END_A - STORY MID5,20.90,1.1,18.581,5.382E-002,8.742,8.073,0.000,0.000,0.000,0.000,16.815,No
 Zone Internal Gains Nominal, ZONE OFFICE WHOLEBUILDING - LG OFFICE A END_A - STORY MID6,20.90,1.1,18.581,5.382E-002,8.742,8.073,0.000,0.000,0.000,0.000,16.815,No
 Zone Internal Gains Nominal, ZONE OFFICE WHOLEBUILDING - LG OFFICE A END_A - STORY MID7,20.90,1.1,18.581,5.382E-002,8.742,8.073,0.000,0.000,0.000,0.000,16.815,No
 Zone Internal Gains Nominal, ZONE OFFICE WHOLEBUILDING - LG OFFICE A END_A - STORY MID8,20.90,1.1,18.581,5.382E-002,8.742,8.073,0.000,0.000,0.000,0.000,16.815,No
 Zone Internal Gains Nominal, ZONE OFFICE WHOLEBUILDING - LG OFFICE A END_A - STORY MID9,20.90,1.1,18.581,5.382E-002,8.742,8.073,0.000,0.000,0.000,0.000,16.815,No
 Zone Internal Gains Nominal, ZONE OFFICE WHOLEBUILDING - LG OFFICE A END_A - STORY TOP,20.90,1.1,18.581,5.382E-002,8.742,8.073,0.000,0.000,0.000,0.000,16.815,No
 Zone Internal Gains Nominal, ZONE OFFICE WHOLEBUILDING - LG OFFICE A END_B - STORY MID,20.90,1.1,18.581,5.382E-002,8.742,8.073,0.000,0.000,0.000,0.000,16.815,No
 Zone Internal Gains Nominal, ZONE OFFICE WHOLEBUILDING - LG OFFICE A END_B - STORY MID10,20.90,1.1,18.581,5.382E-002,8.742,8.073,0.000,0.000,0.000,0.000,16.815,No
 Zone Internal Gains Nominal, ZONE OFFICE WHOLEBUILDING - LG OFFICE A END_B - STORY MID11,20.90,1.1,18.581,5.382E-002,8.742,8.073,0.000,0.000,0.000,0.000,16.815,No
 Zone Internal Gains Nominal, ZONE OFFICE WHOLEBUILDING - LG OFFICE A END_B - STORY MID2,20.90,1.1,18.581,5.382E-002,8.742,8.073,0.000,0.000,0.000,0.000,16.815,No
 Zone Internal Gains Nominal, ZONE OFFICE WHOLEBUILDING - LG OFFICE A END_B - STORY MID3,20.90,1.1,18.581,5.382E-002,8.742,8.073,0.000,0.000,0.000,0.000,16.815,No
 Zone Internal Gains Nominal, ZONE OFFICE WHOLEBUILDING - LG OFFICE A END_B - STORY MID4,20.90,1.1,18.581,5.382E-002,8.742,8.073,0.000,0.000,0.000,0.000,16.815,No
 Zone Internal Gains Nominal, ZONE OFFICE WHOLEBUILDING - LG OFFICE A END_B - STORY MID5,20.90,1.1,18.581,5.382E-002,8.742,8.073,0.000,0.000,0.000,0.000,16.815,No
 Zone Internal Gains Nominal, ZONE OFFICE WHOLEBUILDING - LG OFFICE A END_B - STORY MID6,20.90,1.1,18.581,5.382E-002,8.742,8.073,0.000,0.000,0.000,0.000,16.815,No
 Zone Internal Gains Nominal, ZONE OFFICE WHOLEBUILDING - LG OFFICE A END_B - STORY MID7,20.90,1.1,18.581,5.382E-002,8.742,8.073,0.000,0.000,0.000,0.000,16.815,No
 Zone Internal Gains Nominal, ZONE OFFICE WHOLEBUILDING - LG OFFICE A END_B - STORY MID8,20.90,1.1,18.581,5.382E-002,8.742,8.073,0.000,0.000,0.000,0.000,16.815,No
 Zone Internal Gains Nominal, ZONE OFFICE WHOLEBUILDING - LG OFFICE A END_B - STORY MID9,20.90,1.1,18.581,5.382E-002,8.742,8.073,0.000,0.000,0.000,0.000,16.815,No
 Zone Internal Gains Nominal, ZONE OFFICE WHOLEBUILDING - LG OFFICE A END_B - STORY TOP,20.90,1.1,18.581,5.382E-002,8.742,8.073,0.000,0.000,0.000,0.000,16.815,No
 Zone Internal Gains Nominal, ZONE OFFICE WHOLEBUILDING - LG OFFICE B  - STORY GROUND,362.78,19.5,18.581,5.382E-002,8.742,263.557,0.000,0.000,0.000,0.000,272.299,No
 Zone Internal Gains Nominal, ZONE OFFICE WHOLEBUILDING - LG OFFICE B  - STORY MID,520.49,28.0,18.581,5.382E-002,8.742,8.073,0.000,0.000,0.000,0.000,16.815,No
 Zone Internal Gains Nominal, ZONE OFFICE WHOLEBUILDING - LG OFFICE B  - STORY MID10,520.49,28.0,18.581,5.382E-002,8.742,8.073,0.000,0.000,0.000,0.000,16.815,No
 Zone Internal Gains Nominal, ZONE OFFICE WHOLEBUILDING - LG OFFICE B  - STORY MID11,520.49,28.0,18.581,5.382E-002,8.742,8.073,0.000,0.000,0.000,0.000,16.815,No
 Zone Internal Gains Nominal, ZONE OFFICE WHOLEBUILDING - LG OFFICE B  - STORY MID2,520.49,28.0,18.581,5.382E-002,8.742,8.073,0.000,0.000,0.000,0.000,16.815,No
 Zone Internal Gains Nominal, ZONE OFFICE WHOLEBUILDING - LG OFFICE B  - STORY MID3,520.49,28.0,18.581,5.382E-002,8.742,8.073,0.000,0.000,0.000,0.000,16.815,No
 Zone Internal Gains Nominal, ZONE OFFICE WHOLEBUILDING - LG OFFICE B  - STORY MID4,520.49,28.0,18.581,5.382E-002,8.742,8.073,0.000,0.000,0.000,0.000,16.815,No
 Zone Internal Gains Nominal, ZONE OFFICE WHOLEBUILDING - LG OFFICE B  - STORY MID5,520.49,28.0,18.581,5.382E-002,8.742,8.073,0.000,0.000,0.000,0.000,16.815,No
 Zone Internal Gains Nominal, ZONE OFFICE WHOLEBUILDING - LG OFFICE B  - STORY MID6,520.49,28.0,18.581,5.382E-002,8.742,8.073,0.000,0.000,0.000,0.000,16.815,No
 Zone Internal Gains Nominal, ZONE OFFICE WHOLEBUILDING - LG OFFICE B  - STORY MID7,520.49,28.0,18.581,5.382E-002,8.742,8.073,0.000,0.000,0.000,0.000,16.815,No
 Zone Internal Gains Nominal, ZONE OFFICE WHOLEBUILDING - LG OFFICE B  - STORY MID8,520.49,28.0,18.581,5.382E-002,8.742,8.073,0.000,0.000,0.000,0.000,16.815,No
 Zone Internal Gains Nominal, ZONE OFFICE WHOLEBUILDING - LG OFFICE B  - STORY MID9,520.49,28.0,18.581,5.382E-002,8.742,8.073,0.000,0.000,0.000,0.000,16.815,No
 Zone Internal Gains Nominal, ZONE OFFICE WHOLEBUILDING - LG OFFICE B  - STORY TOP,520.49,28.0,18.581,5.382E-002,8.742,8.073,0.000,0.000,0.000,0.000,16.815,No
 Zone Internal Gains Nominal, ZONE OFFICE WHOLEBUILDING - LG OFFICE B END_A - STORY GROUND,64.04,3.4,18.581,5.382E-002,8.742,8.073,0.000,0.000,0.000,0.000,16.815,No
 Zone Internal Gains Nominal, ZONE OFFICE WHOLEBUILDING - LG OFFICE B END_A - STORY MID,64.04,3.4,18.581,5.382E-002,8.742,8.073,0.000,0.000,0.000,0.000,16.815,No
 Zone Internal Gains Nominal, ZONE OFFICE WHOLEBUILDING - LG OFFICE B END_A - STORY MID10,64.04,3.4,18.581,5.382E-002,8.742,8.073,0.000,0.000,0.000,0.000,16.815,No
 Zone Internal Gains Nominal, ZONE OFFICE WHOLEBUILDING - LG OFFICE B END_A - STORY MID11,64.04,3.4,18.581,5.382E-002,8.742,8.073,0.000,0.000,0.000,0.000,16.815,No
 Zone Internal Gains Nominal, ZONE OFFICE WHOLEBUILDING - LG OFFICE B END_A - STORY MID2,64.04,3.4,18.581,5.382E-002,8.742,8.073,0.000,0.000,0.000,0.000,16.815,No
 Zone Internal Gains Nominal, ZONE OFFICE WHOLEBUILDING - LG OFFICE B END_A - STORY MID3,64.04,3.4,18.581,5.382E-002,8.742,8.073,0.000,0.000,0.000,0.000,16.815,No
 Zone Internal Gains Nominal, ZONE OFFICE WHOLEBUILDING - LG OFFICE B END_A - STORY MID4,64.04,3.4,18.581,5.382E-002,8.742,8.073,0.000,0.000,0.000,0.000,16.815,No
 Zone Internal Gains Nominal, ZONE OFFICE WHOLEBUILDING - LG OFFICE B END_A - STORY MID5,64.04,3.4,18.581,5.382E-002,8.742,8.073,0.000,0.000,0.000,0.000,16.815,No
 Zone Internal Gains Nominal, ZONE OFFICE WHOLEBUILDING - LG OFFICE B END_A - STORY MID6,64.04,3.4,18.581,5.382E-002,8.742,8.073,0.000,0.000,0.000,0.000,16.815,No
 Zone Internal Gains Nominal, ZONE OFFICE WHOLEBUILDING - LG OFFICE B END_A - STORY MID7,64.04,3.4,18.581,5.382E-002,8.742,8.073,0.000,0.000,0.000,0.000,16.815,No
 Zone Internal Gains Nominal, ZONE OFFICE WHOLEBUILDING - LG OFFICE B END_A - STORY MID8,64.04,3.4,18.581,5.382E-002,8.742,8.073,0.000,0.000,0.000,0.000,16.815,No
 Zone Internal Gains Nominal, ZONE OFFICE WHOLEBUILDING - LG OFFICE B END_A - STORY MID9,64.04,3.4,18.581,5.382E-002,8.742,8.073,0.000,0.000,0.000,0.000,16.815,No
 Zone Internal Gains Nominal, ZONE OFFICE WHOLEBUILDING - LG OFFICE B END_A - STORY TOP,64.04,3.4,18.581,5.382E-002,8.742,8.073,0.000,0.000,0.000,0.000,16.815,No
 Zone Internal Gains Nominal, ZONE OFFICE WHOLEBUILDING - LG OFFICE B END_B - STORY MID,64.04,3.4,18.581,5.382E-002,8.742,8.073,0.000,0.000,0.000,0.000,16.815,No
 Zone Internal Gains Nominal, ZONE OFFICE WHOLEBUILDING - LG OFFICE B END_B - STORY MID10,64.04,3.4,18.581,5.382E-002,8.742,8.073,0.000,0.000,0.000,0.000,16.815,No
 Zone Internal Gains Nominal, ZONE OFFICE WHOLEBUILDING - LG OFFICE B END_B - STORY MID11,64.04,3.4,18.581,5.382E-002,8.742,8.073,0.000,0.000,0.000,0.000,16.815,No
 Zone Internal Gains Nominal, ZONE OFFICE WHOLEBUILDING - LG OFFICE B END_B - STORY MID2,64.04,3.4,18.581,5.382E-002,8.742,8.073,0.000,0.000,0.000,0.000,16.815,No
 Zone Internal Gains Nominal, ZONE OFFICE WHOLEBUILDING - LG OFFICE B END_B - STORY MID3,64.04,3.4,18.581,5.382E-002,8.742,8.073,0.000,0.000,0.000,0.000,16.815,No
 Zone Internal Gains Nominal, ZONE OFFICE WHOLEBUILDING - LG OFFICE B END_B - STORY MID4,64.04,3.4,18.581,5.382E-002,8.742,8.073,0.000,0.000,0.000,0.000,16.815,No
 Zone Internal Gains Nominal, ZONE OFFICE WHOLEBUILDING - LG OFFICE B END_B - STORY MID5,64.04,3.4,18.581,5.382E-002,8.742,8.073,0.000,0.000,0.000,0.000,16.815,No
 Zone Internal Gains Nominal, ZONE OFFICE WHOLEBUILDING - LG OFFICE B END_B - STORY MID6,64.04,3.4,18.581,5.382E-002,8.742,8.073,0.000,0.000,0.000,0.000,16.815,No
 Zone Internal Gains Nominal, ZONE OFFICE WHOLEBUILDING - LG OFFICE B END_B - STORY MID7,64.04,3.4,18.581,5.382E-002,8.742,8.073,0.000,0.000,0.000,0.000,16.815,No
 Zone Internal Gains Nominal, ZONE OFFICE WHOLEBUILDING - LG OFFICE B END_B - STORY MID8,64.04,3.4,18.581,5.382E-002,8.742,8.073,0.000,0.000,0.000,0.000,16.815,No
 Zone Internal Gains Nominal, ZONE OFFICE WHOLEBUILDING - LG OFFICE B END_B - STORY MID9,64.04,3.4,18.581,5.382E-002,8.742,8.073,0.000,0.000,0.000,0.000,16.815,No
 Zone Internal Gains Nominal, ZONE OFFICE WHOLEBUILDING - LG OFFICE B END_B - STORY TOP,64.04,3.4,18.581,5.382E-002,8.742,8.073,0.000,0.000,0.000,0.000,16.815,No
 Zone Internal Gains Nominal, ZONE OFFICE WHOLEBUILDING - LG OFFICE C  - STORY GROUND,118.41,6.4,18.581,5.382E-002,8.742,8.073,0.000,0.000,0.000,0.000,16.815,No
 Zone Internal Gains Nominal, ZONE OFFICE WHOLEBUILDING - LG OFFICE C  - STORY MID,169.89,9.1,18.581,5.382E-002,8.742,8.073,0.000,0.000,0.000,0.000,16.815,No
 Zone Internal Gains Nominal, ZONE OFFICE WHOLEBUILDING - LG OFFICE C  - STORY MID10,169.89,9.1,18.581,5.382E-002,8.742,8.073,0.000,0.000,0.000,0.000,16.815,No
 Zone Internal Gains Nominal, ZONE OFFICE WHOLEBUILDING - LG OFFICE C  - STORY MID11,169.89,9.1,18.581,5.382E-002,8.742,8.073,0.000,0.000,0.000,0.000,16.815,No
 Zone Internal Gains Nominal, ZONE OFFICE WHOLEBUILDING - LG OFFICE C  - STORY MID2,169.89,9.1,18.581,5.382E-002,8.742,8.073,0.000,0.000,0.000,0.000,16.815,No
 Zone Internal Gains Nominal, ZONE OFFICE WHOLEBUILDING - LG OFFICE C  - STORY MID3,169.89,9.1,18.581,5.382E-002,8.742,8.073,0.000,0.000,0.000,0.000,16.815,No
 Zone Internal Gains Nominal, ZONE OFFICE WHOLEBUILDING - LG OFFICE C  - STORY MID4,169.89,9.1,18.581,5.382E-002,8.742,8.073,0.000,0.000,0.000,0.000,16.815,No
 Zone Internal Gains Nominal, ZONE OFFICE WHOLEBUILDING - LG OFFICE C  - STORY MID5,169.89,9.1,18.581,5.382E-002,8.742,8.073,0.000,0.000,0.000,0.000,16.815,No
 Zone Internal Gains Nominal, ZONE OFFICE WHOLEBUILDING - LG OFFICE C  - STORY MID6,169.89,9.1,18.581,5.382E-002,8.742,8.073,0.000,0.000,0.000,0.000,16.815,No
 Zone Internal Gains Nominal, ZONE OFFICE WHOLEBUILDING - LG OFFICE C  - STORY MID7,169.89,9.1,18.581,5.382E-002,8.742,8.073,0.000,0.000,0.000,0.000,16.815,No
 Zone Internal Gains Nominal, ZONE OFFICE WHOLEBUILDING - LG OFFICE C  - STORY MID8,169.89,9.1,18.581,5.382E-002,8.742,8.073,0.000,0.000,0.000,0.000,16.815,No
 Zone Internal Gains Nominal, ZONE OFFICE WHOLEBUILDING - LG OFFICE C  - STORY MID9,169.89,9.1,18.581,5.382E-002,8.742,8.073,0.000,0.000,0.000,0.000,16.815,No
 Zone Internal Gains Nominal, ZONE OFFICE WHOLEBUILDING - LG OFFICE C  - STORY TOP,169.89,9.1,18.581,5.382E-002,8.742,8.073,0.000,0.000,0.000,0.000,16.815,No
 Zone Internal Gains Nominal, ZONE OFFICE WHOLEBUILDING - LG OFFICE C END_A - STORY GROUND,20.90,1.1,18.581,5.382E-002,8.742,8.073,0.000,0.000,0.000,0.000,16.815,No
 Zone Internal Gains Nominal, ZONE OFFICE WHOLEBUILDING - LG OFFICE C END_A - STORY MID,20.90,1.1,18.581,5.382E-002,8.742,8.073,0.000,0.000,0.000,0.000,16.815,No
 Zone Internal Gains Nominal, ZONE OFFICE WHOLEBUILDING - LG OFFICE C END_A - STORY MID10,20.90,1.1,18.581,5.382E-002,8.742,8.073,0.000,0.000,0.000,0.000,16.815,No
 Zone Internal Gains Nominal, ZONE OFFICE WHOLEBUILDING - LG OFFICE C END_A - STORY MID11,20.90,1.1,18.581,5.382E-002,8.742,8.073,0.000,0.000,0.000,0.000,16.815,No
 Zone Internal Gains Nominal, ZONE OFFICE WHOLEBUILDING - LG OFFICE C END_A - STORY MID2,20.90,1.1,18.581,5.382E-002,8.742,8.073,0.000,0.000,0.000,0.000,16.815,No
 Zone Internal Gains Nominal, ZONE OFFICE WHOLEBUILDING - LG OFFICE C END_A - STORY MID3,20.90,1.1,18.581,5.382E-002,8.742,8.073,0.000,0.000,0.000,0.000,16.815,No
 Zone Internal Gains Nominal, ZONE OFFICE WHOLEBUILDING - LG OFFICE C END_A - STORY MID4,20.90,1.1,18.581,5.382E-002,8.742,8.073,0.000,0.000,0.000,0.000,16.815,No
 Zone Internal Gains Nominal, ZONE OFFICE WHOLEBUILDING - LG OFFICE C END_A - STORY MID5,20.90,1.1,18.581,5.382E-002,8.742,8.073,0.000,0.000,0.000,0.000,16.815,No
 Zone Internal Gains Nominal, ZONE OFFICE WHOLEBUILDING - LG OFFICE C END_A - STORY MID6,20.90,1.1,18.581,5.382E-002,8.742,8.073,0.000,0.000,0.000,0.000,16.815,No
 Zone Internal Gains Nominal, ZONE OFFICE WHOLEBUILDING - LG OFFICE C END_A - STORY MID7,20.90,1.1,18.581,5.382E-002,8.742,8.073,0.000,0.000,0.000,0.000,16.815,No
 Zone Internal Gains Nominal, ZONE OFFICE WHOLEBUILDING - LG OFFICE C END_A - STORY MID8,20.90,1.1,18.581,5.382E-002,8.742,8.073,0.000,0.000,0.000,0.000,16.815,No
 Zone Internal Gains Nominal, ZONE OFFICE WHOLEBUILDING - LG OFFICE C END_A - STORY MID9,20.90,1.1,18.581,5.382E-002,8.742,8.073,0.000,0.000,0.000,0.000,16.815,No
 Zone Internal Gains Nominal, ZONE OFFICE WHOLEBUILDING - LG OFFICE C END_A - STORY TOP,20.90,1.1,18.581,5.382E-002,8.742,8.073,0.000,0.000,0.000,0.000,16.815,No
 Zone Internal Gains Nominal, ZONE OFFICE WHOLEBUILDING - LG OFFICE C END_B - STORY MID,20.90,1.1,18.581,5.382E-002,8.742,8.073,0.000,0.000,0.000,0.000,16.815,No
 Zone Internal Gains Nominal, ZONE OFFICE WHOLEBUILDING - LG OFFICE C END_B - STORY MID10,20.90,1.1,18.581,5.382E-002,8.742,8.073,0.000,0.000,0.000,0.000,16.815,No
 Zone Internal Gains Nominal, ZONE OFFICE WHOLEBUILDING - LG OFFICE C END_B - STORY MID11,20.90,1.1,18.581,5.382E-002,8.742,8.073,0.000,0.000,0.000,0.000,16.815,No
 Zone Internal Gains Nominal, ZONE OFFICE WHOLEBUILDING - LG OFFICE C END_B - STORY MID2,20.90,1.1,18.581,5.382E-002,8.742,8.073,0.000,0.000,0.000,0.000,16.815,No
 Zone Internal Gains Nominal, ZONE OFFICE WHOLEBUILDING - LG OFFICE C END_B - STORY MID3,20.90,1.1,18.581,5.382E-002,8.742,8.073,0.000,0.000,0.000,0.000,16.815,No
 Zone Internal Gains Nominal, ZONE OFFICE WHOLEBUILDING - LG OFFICE C END_B - STORY MID4,20.90,1.1,18.581,5.382E-002,8.742,8.073,0.000,0.000,0.000,0.000,16.815,No
 Zone Internal Gains Nominal, ZONE OFFICE WHOLEBUILDING - LG OFFICE C END_B - STORY MID5,20.90,1.1,18.581,5.382E-002,8.742,8.073,0.000,0.000,0.000,0.000,16.815,No
 Zone Internal Gains Nominal, ZONE OFFICE WHOLEBUILDING - LG OFFICE C END_B - STORY MID6,20.90,1.1,18.581,5.382E-002,8.742,8.073,0.000,0.000,0.000,0.000,16.815,No
 Zone Internal Gains Nominal, ZONE OFFICE WHOLEBUILDING - LG OFFICE C END_B - STORY MID7,20.90,1.1,18.581,5.382E-002,8.742,8.073,0.000,0.000,0.000,0.000,16.815,No
 Zone Internal Gains Nominal, ZONE OFFICE WHOLEBUILDING - LG OFFICE C END_B - STORY MID8,20.90,1.1,18.581,5.382E-002,8.742,8.073,0.000,0.000,0.000,0.000,16.815,No
 Zone Internal Gains Nominal, ZONE OFFICE WHOLEBUILDING - LG OFFICE C END_B - STORY MID9,20.90,1.1,18.581,5.382E-002,8.742,8.073,0.000,0.000,0.000,0.000,16.815,No
 Zone Internal Gains Nominal, ZONE OFFICE WHOLEBUILDING - LG OFFICE C END_B - STORY TOP,20.90,1.1,18.581,5.382E-002,8.742,8.073,0.000,0.000,0.000,0.000,16.815,No
! <People Internal Gains Nominal>,Name,Schedule Name,Zone Name,Zone Floor Area {m2},# Zone Occupants,Number of People {},People/Floor Area {person/m2},Floor Area per person {m2/person},Fraction Radiant,Fraction Convected,Sensible Fraction Calculation,Activity level,ASHRAE 55 Warnings,Carbon Dioxide Generation Rate,Nominal Minimum Number of People,Nominal Maximum Number of People
 People Internal Gains Nominal, OFFICE WHOLEBUILDING - LG OFFICE B  - STORY MID10 OFFICE WHOLEBUILDING - LG OFFICE PEOPLE,LARGE OFFICE BLDG OCC,ZONE OFFICE WHOLEBUILDING - LG OFFICE B  - STORY MID10,520.49,28.0,28.0,5.382E-002,18.581,0.300,0.700,AutoCalculate,LARGE OFFICE ACTIVITY,No,3.8200E-008,0,28
 People Internal Gains Nominal, OFFICE WHOLEBUILDING - LG OFFICE B  - STORY GROUND OFFICE WHOLEBUILDING - LG OFFICE PEOPLE,LARGE OFFICE BLDG OCC,ZONE OFFICE WHOLEBUILDING - LG OFFICE B  - STORY GROUND,362.78,19.5,19.5,5.382E-002,18.581,0.300,0.700,AutoCalculate,LARGE OFFICE ACTIVITY,No,3.8200E-008,0,20
 People Internal Gains Nominal, OFFICE WHOLEBUILDING - LG OFFICE A END_A - STORY MID OFFICE WHOLEBUILDING - LG OFFICE PEOPLE,LARGE OFFICE BLDG OCC,ZONE OFFICE WHOLEBUILDING - LG OFFICE A END_A - STORY MID,20.90,1.1,1.1,5.382E-002,18.581,0.300,0.700,AutoCalculate,LARGE OFFICE ACTIVITY,No,3.8200E-008,0,1
 People Internal Gains Nominal, OFFICE WHOLEBUILDING - LG OFFICE A  - STORY MID OFFICE WHOLEBUILDING - LG OFFICE PEOPLE,LARGE OFFICE BLDG OCC,ZONE OFFICE WHOLEBUILDING - LG OFFICE A  - STORY MID,169.89,9.1,9.1,5.382E-002,18.581,0.300,0.700,AutoCalculate,LARGE OFFICE ACTIVITY,No,3.8200E-008,0,9
 People Internal Gains Nominal, OFFICE WHOLEBUILDING - LG OFFICE B  - STORY MID OFFICE WHOLEBUILDING - LG OFFICE PEOPLE,LARGE OFFICE BLDG OCC,ZONE OFFICE WHOLEBUILDING - LG OFFICE B  - STORY MID,520.49,28.0,28.0,5.382E-002,18.581,0.300,0.700,AutoCalculate,LARGE OFFICE ACTIVITY,No,3.8200E-008,0,28
 People Internal Gains Nominal, OFFICE WHOLEBUILDING - LG OFFICE C  - STORY MID OFFICE WHOLEBUILDING - LG OFFICE PEOPLE,LARGE OFFICE BLDG OCC,ZONE OFFICE WHOLEBUILDING - LG OFFICE C  - STORY MID,169.89,9.1,9.1,5.382E-002,18.581,0.300,0.700,AutoCalculate,LARGE OFFICE ACTIVITY,No,3.8200E-008,0,9
 People Internal Gains Nominal, OFFICE WHOLEBUILDING - LG OFFICE A END_B - STORY MID OFFICE WHOLEBUILDING - LG OFFICE PEOPLE,LARGE OFFICE BLDG OCC,ZONE OFFICE WHOLEBUILDING - LG OFFICE A END_B - STORY MID,20.90,1.1,1.1,5.382E-002,18.581,0.300,0.700,AutoCalculate,LARGE OFFICE ACTIVITY,No,3.8200E-008,0,1
 People Internal Gains Nominal, OFFICE WHOLEBUILDING - LG OFFICE B END_A - STORY MID2 OFFICE WHOLEBUILDING - LG OFFICE PEOPLE,LARGE OFFICE BLDG OCC,ZONE OFFICE WHOLEBUILDING - LG OFFICE B END_A - STORY MID2,64.04,3.4,3.4,5.382E-002,18.581,0.300,0.700,AutoCalculate,LARGE OFFICE ACTIVITY,No,3.8200E-008,0,3
 People Internal Gains Nominal, OFFICE WHOLEBUILDING - LG OFFICE C END_A - STORY MID2 OFFICE WHOLEBUILDING - LG OFFICE PEOPLE,LARGE OFFICE BLDG OCC,ZONE OFFICE WHOLEBUILDING - LG OFFICE C END_A - STORY MID2,20.90,1.1,1.1,5.382E-002,18.581,0.300,0.700,AutoCalculate,LARGE OFFICE ACTIVITY,No,3.8200E-008,0,1
 People Internal Gains Nominal, OFFICE WHOLEBUILDING - LG OFFICE A END_B - STORY MID8 OFFICE WHOLEBUILDING - LG OFFICE PEOPLE,LARGE OFFICE BLDG OCC,ZONE OFFICE WHOLEBUILDING - LG OFFICE A END_B - STORY MID8,20.90,1.1,1.1,5.382E-002,18.581,0.300,0.700,AutoCalculate,LARGE OFFICE ACTIVITY,No,3.8200E-008,0,1
 People Internal Gains Nominal, OFFICE WHOLEBUILDING - LG OFFICE A END_A - STORY MID3 OFFICE WHOLEBUILDING - LG OFFICE PEOPLE,LARGE OFFICE BLDG OCC,ZONE OFFICE WHOLEBUILDING - LG OFFICE A END_A - STORY MID3,20.90,1.1,1.1,5.382E-002,18.581,0.300,0.700,AutoCalculate,LARGE OFFICE ACTIVITY,No,3.8200E-008,0,1
 People Internal Gains Nominal, OFFICE WHOLEBUILDING - LG OFFICE B END_A - STORY MID3 OFFICE WHOLEBUILDING - LG OFFICE PEOPLE,LARGE OFFICE BLDG OCC,ZONE OFFICE WHOLEBUILDING - LG OFFICE B END_A - STORY MID3,64.04,3.4,3.4,5.382E-002,18.581,0.300,0.700,AutoCalculate,LARGE OFFICE ACTIVITY,No,3.8200E-008,0,3
 People Internal Gains Nominal, OFFICE WHOLEBUILDING - LG OFFICE C END_A - STORY MID3 OFFICE WHOLEBUILDING - LG OFFICE PEOPLE,LARGE OFFICE BLDG OCC,ZONE OFFICE WHOLEBUILDING - LG OFFICE C END_A - STORY MID3,20.90,1.1,1.1,5.382E-002,18.581,0.300,0.700,AutoCalculate,LARGE OFFICE ACTIVITY,No,3.8200E-008,0,1
 People Internal Gains Nominal, OFFICE WHOLEBUILDING - LG OFFICE A END_B - STORY TOP OFFICE WHOLEBUILDING - LG OFFICE PEOPLE,LARGE OFFICE BLDG OCC,ZONE OFFICE WHOLEBUILDING - LG OFFICE A END_B - STORY TOP,20.90,1.1,1.1,5.382E-002,18.581,0.300,0.700,AutoCalculate,LARGE OFFICE ACTIVITY,No,3.8200E-008,0,1
 People Internal Gains Nominal, OFFICE WHOLEBUILDING - LG OFFICE A END_B - STORY MID3 OFFICE WHOLEBUILDING - LG OFFICE PEOPLE,LARGE OFFICE BLDG OCC,ZONE OFFICE WHOLEBUILDING - LG OFFICE A END_B - STORY MID3,20.90,1.1,1.1,5.382E-002,18.581,0.300,0.700,AutoCalculate,LARGE OFFICE ACTIVITY,No,3.8200E-008,0,1
 People Internal Gains Nominal, OFFICE WHOLEBUILDING - LG OFFICE B END_B - STORY MID3 OFFICE WHOLEBUILDING - LG OFFICE PEOPLE,LARGE OFFICE BLDG OCC,ZONE OFFICE WHOLEBUILDING - LG OFFICE B END_B - STORY MID3,64.04,3.4,3.4,5.382E-002,18.581,0.300,0.700,AutoCalculate,LARGE OFFICE ACTIVITY,No,3.8200E-008,0,3
 People Internal Gains Nominal, OFFICE WHOLEBUILDING - LG OFFICE A  - STORY MID2 OFFICE WHOLEBUILDING - LG OFFICE PEOPLE,LARGE OFFICE BLDG OCC,ZONE OFFICE WHOLEBUILDING - LG OFFICE A  - STORY MID2,169.89,9.1,9.1,5.382E-002,18.581,0.300,0.700,AutoCalculate,LARGE OFFICE ACTIVITY,No,3.8200E-008,0,9
 People Internal Gains Nominal, OFFICE WHOLEBUILDING - LG OFFICE C END_B - STORY MID3 OFFICE WHOLEBUILDING - LG OFFICE PEOPLE,LARGE OFFICE BLDG OCC,ZONE OFFICE WHOLEBUILDING - LG OFFICE C END_B - STORY MID3,20.90,1.1,1.1,5.382E-002,18.581,0.300,0.700,AutoCalculate,LARGE OFFICE ACTIVITY,No,3.8200E-008,0,1
 People Internal Gains Nominal, OFFICE WHOLEBUILDING - LG OFFICE A END_A - STORY MID4 OFFICE WHOLEBUILDING - LG OFFICE PEOPLE,LARGE OFFICE BLDG OCC,ZONE OFFICE WHOLEBUILDING - LG OFFICE A END_A - STORY MID4,20.90,1.1,1.1,5.382E-002,18.581,0.300,0.700,AutoCalculate,LARGE OFFICE ACTIVITY,No,3.8200E-008,0,1
 People Internal Gains Nominal, OFFICE WHOLEBUILDING - LG OFFICE B END_A - STORY MID4 OFFICE WHOLEBUILDING - LG OFFICE PEOPLE,LARGE OFFICE BLDG OCC,ZONE OFFICE WHOLEBUILDING - LG OFFICE B END_A - STORY MID4,64.04,3.4,3.4,5.382E-002,18.581,0.300,0.700,AutoCalculate,LARGE OFFICE ACTIVITY,No,3.8200E-008,0,3
 People Internal Gains Nominal, OFFICE WHOLEBUILDING - LG OFFICE A  - STORY MID4 OFFICE WHOLEBUILDING - LG OFFICE PEOPLE,LARGE OFFICE BLDG OCC,ZONE OFFICE WHOLEBUILDING - LG OFFICE A  - STORY MID4,169.89,9.1,9.1,5.382E-002,18.581,0.300,0.700,AutoCalculate,LARGE OFFICE ACTIVITY,No,3.8200E-008,0,9
 People Internal Gains Nominal, OFFICE WHOLEBUILDING - LG OFFICE B  - STORY MID4 OFFICE WHOLEBUILDING - LG OFFICE PEOPLE,LARGE OFFICE BLDG OCC,ZONE OFFICE WHOLEBUILDING - LG OFFICE B  - STORY MID4,520.49,28.0,28.0,5.382E-002,18.581,0.300,0.700,AutoCalculate,LARGE OFFICE ACTIVITY,No,3.8200E-008,0,28
 People Internal Gains Nominal, OFFICE WHOLEBUILDING - LG OFFICE C  - STORY MID4 OFFICE WHOLEBUILDING - LG OFFICE PEOPLE,LARGE OFFICE BLDG OCC,ZONE OFFICE WHOLEBUILDING - LG OFFICE C  - STORY MID4,169.89,9.1,9.1,5.382E-002,18.581,0.300,0.700,AutoCalculate,LARGE OFFICE ACTIVITY,No,3.8200E-008,0,9
 People Internal Gains Nominal, OFFICE WHOLEBUILDING - LG OFFICE B END_A - STORY GROUND OFFICE WHOLEBUILDING - LG OFFICE PEOPLE,LARGE OFFICE BLDG OCC,ZONE OFFICE WHOLEBUILDING - LG OFFICE B END_A - STORY GROUND,64.04,3.4,3.4,5.382E-002,18.581,0.300,0.700,AutoCalculate,LARGE OFFICE ACTIVITY,No,3.8200E-008,0,3
 People Internal Gains Nominal, OFFICE WHOLEBUILDING - LG OFFICE B END_B - STORY MID2 OFFICE WHOLEBUILDING - LG OFFICE PEOPLE,LARGE OFFICE BLDG OCC,ZONE OFFICE WHOLEBUILDING - LG OFFICE B END_B - STORY MID2,64.04,3.4,3.4,5.382E-002,18.581,0.300,0.700,AutoCalculate,LARGE OFFICE ACTIVITY,No,3.8200E-008,0,3
 People Internal Gains Nominal, OFFICE WHOLEBUILDING - LG OFFICE A END_A - STORY MID8 OFFICE WHOLEBUILDING - LG OFFICE PEOPLE,LARGE OFFICE BLDG OCC,ZONE OFFICE WHOLEBUILDING - LG OFFICE A END_A - STORY MID8,20.90,1.1,1.1,5.382E-002,18.581,0.300,0.700,AutoCalculate,LARGE OFFICE ACTIVITY,No,3.8200E-008,0,1
 People Internal Gains Nominal, OFFICE WHOLEBUILDING - LG OFFICE A END_B - STORY MID4 OFFICE WHOLEBUILDING - LG OFFICE PEOPLE,LARGE OFFICE BLDG OCC,ZONE OFFICE WHOLEBUILDING - LG OFFICE A END_B - STORY MID4,20.90,1.1,1.1,5.382E-002,18.581,0.300,0.700,AutoCalculate,LARGE OFFICE ACTIVITY,No,3.8200E-008,0,1
 People Internal Gains Nominal, OFFICE WHOLEBUILDING - LG OFFICE B END_B - STORY MID4 OFFICE WHOLEBUILDING - LG OFFICE PEOPLE,LARGE OFFICE BLDG OCC,ZONE OFFICE WHOLEBUILDING - LG OFFICE B END_B - STORY MID4,64.04,3.4,3.4,5.382E-002,18.581,0.300,0.700,AutoCalculate,LARGE OFFICE ACTIVITY,No,3.8200E-008,0,3
 People Internal Gains Nominal, OFFICE WHOLEBUILDING - LG OFFICE C END_A - STORY GROUND OFFICE WHOLEBUILDING - LG OFFICE PEOPLE,LARGE OFFICE BLDG OCC,ZONE OFFICE WHOLEBUILDING - LG OFFICE C END_A - STORY GROUND,20.90,1.1,1.1,5.382E-002,18.581,0.300,0.700,AutoCalculate,LARGE OFFICE ACTIVITY,No,3.8200E-008,0,1
 People Internal Gains Nominal, OFFICE WHOLEBUILDING - LG OFFICE C END_B - STORY MID4 OFFICE WHOLEBUILDING - LG OFFICE PEOPLE,LARGE OFFICE BLDG OCC,ZONE OFFICE WHOLEBUILDING - LG OFFICE C END_B - STORY MID4,20.90,1.1,1.1,5.382E-002,18.581,0.300,0.700,AutoCalculate,LARGE OFFICE ACTIVITY,No,3.8200E-008,0,1
 People Internal Gains Nominal, OFFICE WHOLEBUILDING - LG OFFICE C END_A - STORY MID5 OFFICE WHOLEBUILDING - LG OFFICE PEOPLE,LARGE OFFICE BLDG OCC,ZONE OFFICE WHOLEBUILDING - LG OFFICE C END_A - STORY MID5,20.90,1.1,1.1,5.382E-002,18.581,0.300,0.700,AutoCalculate,LARGE OFFICE ACTIVITY,No,3.8200E-008,0,1
 People Internal Gains Nominal, OFFICE WHOLEBUILDING - LG OFFICE C  - STORY MID5 OFFICE WHOLEBUILDING - LG OFFICE PEOPLE,LARGE OFFICE BLDG OCC,ZONE OFFICE WHOLEBUILDING - LG OFFICE C  - STORY MID5,169.89,9.1,9.1,5.382E-002,18.581,0.300,0.700,AutoCalculate,LARGE OFFICE ACTIVITY,No,3.8200E-008,0,9
 People Internal Gains Nominal, OFFICE WHOLEBUILDING - LG OFFICE A  - STORY MID3 OFFICE WHOLEBUILDING - LG OFFICE PEOPLE,LARGE OFFICE BLDG OCC,ZONE OFFICE WHOLEBUILDING - LG OFFICE A  - STORY MID3,169.89,9.1,9.1,5.382E-002,18.581,0.300,0.700,AutoCalculate,LARGE OFFICE ACTIVITY,No,3.8200E-008,0,9
 People Internal Gains Nominal, OFFICE WHOLEBUILDING - LG OFFICE A END_B - STORY MID5 OFFICE WHOLEBUILDING - LG OFFICE PEOPLE,LARGE OFFICE BLDG OCC,ZONE OFFICE WHOLEBUILDING - LG OFFICE A END_B - STORY MID5,20.90,1.1,1.1,5.382E-002,18.581,0.300,0.700,AutoCalculate,LARGE OFFICE ACTIVITY,No,3.8200E-008,0,1
 People Internal Gains Nominal, OFFICE WHOLEBUILDING - LG OFFICE B END_B - STORY MID5 OFFICE WHOLEBUILDING - LG OFFICE PEOPLE,LARGE OFFICE BLDG OCC,ZONE OFFICE WHOLEBUILDING - LG OFFICE B END_B - STORY MID5,64.04,3.4,3.4,5.382E-002,18.581,0.300,0.700,AutoCalculate,LARGE OFFICE ACTIVITY,No,3.8200E-008,0,3
 People Internal Gains Nominal, OFFICE WHOLEBUILDING - LG OFFICE A END_A - STORY GROUND OFFICE WHOLEBUILDING - LG OFFICE PEOPLE,LARGE OFFICE BLDG OCC,ZONE OFFICE WHOLEBUILDING - LG OFFICE A END_A - STORY GROUND,20.90,1.1,1.1,5.382E-002,18.581,0.300,0.700,AutoCalculate,LARGE OFFICE ACTIVITY,No,3.8200E-008,0,1
 People Internal Gains Nominal, OFFICE WHOLEBUILDING - LG OFFICE C  - STORY MID2 OFFICE WHOLEBUILDING - LG OFFICE PEOPLE,LARGE OFFICE BLDG OCC,ZONE OFFICE WHOLEBUILDING - LG OFFICE C  - STORY MID2,169.89,9.1,9.1,5.382E-002,18.581,0.300,0.700,AutoCalculate,LARGE OFFICE ACTIVITY,No,3.8200E-008,0,9
 People Internal Gains Nominal, OFFICE WHOLEBUILDING - LG OFFICE C  - STORY MID10 OFFICE WHOLEBUILDING - LG OFFICE PEOPLE,LARGE OFFICE BLDG OCC,ZONE OFFICE WHOLEBUILDING - LG OFFICE C  - STORY MID10,169.89,9.1,9.1,5.382E-002,18.581,0.300,0.700,AutoCalculate,LARGE OFFICE ACTIVITY,No,3.8200E-008,0,9
 People Internal Gains Nominal, OFFICE WHOLEBUILDING - LG OFFICE B END_A - STORY MID OFFICE WHOLEBUILDING - LG OFFICE PEOPLE,LARGE OFFICE BLDG OCC,ZONE OFFICE WHOLEBUILDING - LG OFFICE B END_A - STORY MID,64.04,3.4,3.4,5.382E-002,18.581,0.300,0.700,AutoCalculate,LARGE OFFICE ACTIVITY,No,3.8200E-008,0,3
 People Internal Gains Nominal, OFFICE WHOLEBUILDING - LG OFFICE C END_A - STORY MID10 OFFICE WHOLEBUILDING - LG OFFICE PEOPLE,LARGE OFFICE BLDG OCC,ZONE OFFICE WHOLEBUILDING - LG OFFICE C END_A - STORY MID10,20.90,1.1,1.1,5.382E-002,18.581,0.300,0.700,AutoCalculate,LARGE OFFICE ACTIVITY,No,3.8200E-008,0,1
 People Internal Gains Nominal, OFFICE WHOLEBUILDING - LG OFFICE B  - STORY MID9 OFFICE WHOLEBUILDING - LG OFFICE PEOPLE,LARGE OFFICE BLDG OCC,ZONE OFFICE WHOLEBUILDING - LG OFFICE B  - STORY MID9,520.49,28.0,28.0,5.382E-002,18.581,0.300,0.700,AutoCalculate,LARGE OFFICE ACTIVITY,No,3.8200E-008,0,28
 People Internal Gains Nominal, OFFICE WHOLEBUILDING - LG OFFICE B END_B - STORY MID10 OFFICE WHOLEBUILDING - LG OFFICE PEOPLE,LARGE OFFICE BLDG OCC,ZONE OFFICE WHOLEBUILDING - LG OFFICE B END_B - STORY MID10,64.04,3.4,3.4,5.382E-002,18.581,0.300,0.700,AutoCalculate,LARGE OFFICE ACTIVITY,No,3.8200E-008,0,3
 People Internal Gains Nominal, OFFICE WHOLEBUILDING - LG OFFICE A END_B - STORY MID10 OFFICE WHOLEBUILDING - LG OFFICE PEOPLE,LARGE OFFICE BLDG OCC,ZONE OFFICE WHOLEBUILDING - LG OFFICE A END_B - STORY MID10,20.90,1.1,1.1,5.382E-002,18.581,0.300,0.700,AutoCalculate,LARGE OFFICE ACTIVITY,No,3.8200E-008,0,1
 People Internal Gains Nominal, OFFICE WHOLEBUILDING - LG OFFICE B END_B - STORY MID9 OFFICE WHOLEBUILDING - LG OFFICE PEOPLE,LARGE OFFICE BLDG OCC,ZONE OFFICE WHOLEBUILDING - LG OFFICE B END_B - STORY MID9,64.04,3.4,3.4,5.382E-002,18.581,0.300,0.700,AutoCalculate,LARGE OFFICE ACTIVITY,No,3.8200E-008,0,3
 People Internal Gains Nominal, OFFICE WHOLEBUILDING - LG OFFICE C END_A - STORY MID11 OFFICE WHOLEBUILDING - LG OFFICE PEOPLE,LARGE OFFICE BLDG OCC,ZONE OFFICE WHOLEBUILDING - LG OFFICE C END_A - STORY MID11,20.90,1.1,1.1,5.382E-002,18.581,0.300,0.700,AutoCalculate,LARGE OFFICE ACTIVITY,No,3.8200E-008,0,1
 People Internal Gains Nominal, OFFICE WHOLEBUILDING - LG OFFICE C END_B - STORY TOP OFFICE WHOLEBUILDING - LG OFFICE PEOPLE,LARGE OFFICE BLDG OCC,ZONE OFFICE WHOLEBUILDING - LG OFFICE C END_B - STORY TOP,20.90,1.1,1.1,5.382E-002,18.581,0.300,0.700,AutoCalculate,LARGE OFFICE ACTIVITY,No,3.8200E-008,0,1
 People Internal Gains Nominal, OFFICE WHOLEBUILDING - LG OFFICE B END_B - STORY TOP OFFICE WHOLEBUILDING - LG OFFICE PEOPLE,LARGE OFFICE BLDG OCC,ZONE OFFICE WHOLEBUILDING - LG OFFICE B END_B - STORY TOP,64.04,3.4,3.4,5.382E-002,18.581,0.300,0.700,AutoCalculate,LARGE OFFICE ACTIVITY,No,3.8200E-008,0,3
 People Internal Gains Nominal, OFFICE WHOLEBUILDING - LG OFFICE A END_A - STORY MID7 OFFICE WHOLEBUILDING - LG OFFICE PEOPLE,LARGE OFFICE BLDG OCC,ZONE OFFICE WHOLEBUILDING - LG OFFICE A END_A - STORY MID7,20.90,1.1,1.1,5.382E-002,18.581,0.300,0.700,AutoCalculate,LARGE OFFICE ACTIVITY,No,3.8200E-008,0,1
 People Internal Gains Nominal, OFFICE WHOLEBUILDING - LG OFFICE A END_A - STORY MID6 OFFICE WHOLEBUILDING - LG OFFICE PEOPLE,LARGE OFFICE BLDG OCC,ZONE OFFICE WHOLEBUILDING - LG OFFICE A END_A - STORY MID6,20.90,1.1,1.1,5.382E-002,18.581,0.300,0.700,AutoCalculate,LARGE OFFICE ACTIVITY,No,3.8200E-008,0,1
 People Internal Gains Nominal, OFFICE WHOLEBUILDING - LG OFFICE A  - STORY MID5 OFFICE WHOLEBUILDING - LG OFFICE PEOPLE,LARGE OFFICE BLDG OCC,ZONE OFFICE WHOLEBUILDING - LG OFFICE A  - STORY MID5,169.89,9.1,9.1,5.382E-002,18.581,0.300,0.700,AutoCalculate,LARGE OFFICE ACTIVITY,No,3.8200E-008,0,9
 People Internal Gains Nominal, OFFICE WHOLEBUILDING - LG OFFICE B  - STORY MID6 OFFICE WHOLEBUILDING - LG OFFICE PEOPLE,LARGE OFFICE BLDG OCC,ZONE OFFICE WHOLEBUILDING - LG OFFICE B  - STORY MID6,520.49,28.0,28.0,5.382E-002,18.581,0.300,0.700,AutoCalculate,LARGE OFFICE ACTIVITY,No,3.8200E-008,0,28
 People Internal Gains Nominal, OFFICE WHOLEBUILDING - LG OFFICE C END_B - STORY MID11 OFFICE WHOLEBUILDING - LG OFFICE PEOPLE,LARGE OFFICE BLDG OCC,ZONE OFFICE WHOLEBUILDING - LG OFFICE C END_B - STORY MID11,20.90,1.1,1.1,5.382E-002,18.581,0.300,0.700,AutoCalculate,LARGE OFFICE ACTIVITY,No,3.8200E-008,0,1
 People Internal Gains Nominal, OFFICE WHOLEBUILDING - LG OFFICE B  - STORY TOP OFFICE WHOLEBUILDING - LG OFFICE PEOPLE,LARGE OFFICE BLDG OCC,ZONE OFFICE WHOLEBUILDING - LG OFFICE B  - STORY TOP,520.49,28.0,28.0,5.382E-002,18.581,0.300,0.700,AutoCalculate,LARGE OFFICE ACTIVITY,No,3.8200E-008,0,28
 People Internal Gains Nominal, OFFICE WHOLEBUILDING - LG OFFICE A END_A - STORY MID10 OFFICE WHOLEBUILDING - LG OFFICE PEOPLE,LARGE OFFICE BLDG OCC,ZONE OFFICE WHOLEBUILDING - LG OFFICE A END_A - STORY MID10,20.90,1.1,1.1,5.382E-002,18.581,0.300,0.700,AutoCalculate,LARGE OFFICE ACTIVITY,No,3.8200E-008,0,1
 People Internal Gains Nominal, OFFICE WHOLEBUILDING - LG OFFICE C END_B - STORY MID OFFICE WHOLEBUILDING - LG OFFICE PEOPLE,LARGE OFFICE BLDG OCC,ZONE OFFICE WHOLEBUILDING - LG OFFICE C END_B - STORY MID,20.90,1.1,1.1,5.382E-002,18.581,0.300,0.700,AutoCalculate,LARGE OFFICE ACTIVITY,No,3.8200E-008,0,1
 People Internal Gains Nominal, OFFICE WHOLEBUILDING - LG OFFICE C  - STORY TOP OFFICE WHOLEBUILDING - LG OFFICE PEOPLE,LARGE OFFICE BLDG OCC,ZONE OFFICE WHOLEBUILDING - LG OFFICE C  - STORY TOP,169.89,9.1,9.1,5.382E-002,18.581,0.300,0.700,AutoCalculate,LARGE OFFICE ACTIVITY,No,3.8200E-008,0,9
 People Internal Gains Nominal, OFFICE WHOLEBUILDING - LG OFFICE A END_A - STORY MID11 OFFICE WHOLEBUILDING - LG OFFICE PEOPLE,LARGE OFFICE BLDG OCC,ZONE OFFICE WHOLEBUILDING - LG OFFICE A END_A - STORY MID11,20.90,1.1,1.1,5.382E-002,18.581,0.300,0.700,AutoCalculate,LARGE OFFICE ACTIVITY,No,3.8200E-008,0,1
 People Internal Gains Nominal, OFFICE WHOLEBUILDING - LG OFFICE B  - STORY MID3 OFFICE WHOLEBUILDING - LG OFFICE PEOPLE,LARGE OFFICE BLDG OCC,ZONE OFFICE WHOLEBUILDING - LG OFFICE B  - STORY MID3,520.49,28.0,28.0,5.382E-002,18.581,0.300,0.700,AutoCalculate,LARGE OFFICE ACTIVITY,No,3.8200E-008,0,28
 People Internal Gains Nominal, OFFICE WHOLEBUILDING - LG OFFICE C END_A - STORY TOP OFFICE WHOLEBUILDING - LG OFFICE PEOPLE,LARGE OFFICE BLDG OCC,ZONE OFFICE WHOLEBUILDING - LG OFFICE C END_A - STORY TOP,20.90,1.1,1.1,5.382E-002,18.581,0.300,0.700,AutoCalculate,LARGE OFFICE ACTIVITY,No,3.8200E-008,0,1
 People Internal Gains Nominal, OFFICE WHOLEBUILDING - LG OFFICE C END_B - STORY MID2 OFFICE WHOLEBUILDING - LG OFFICE PEOPLE,LARGE OFFICE BLDG OCC,ZONE OFFICE WHOLEBUILDING - LG OFFICE C END_B - STORY MID2,20.90,1.1,1.1,5.382E-002,18.581,0.300,0.700,AutoCalculate,LARGE OFFICE ACTIVITY,No,3.8200E-008,0,1
 People Internal Gains Nominal, OFFICE WHOLEBUILDING - LG OFFICE A END_B - STORY MID6 OFFICE WHOLEBUILDING - LG OFFICE PEOPLE,LARGE OFFICE BLDG OCC,ZONE OFFICE WHOLEBUILDING - LG OFFICE A END_B - STORY MID6,20.90,1.1,1.1,5.382E-002,18.581,0.300,0.700,AutoCalculate,LARGE OFFICE ACTIVITY,No,3.8200E-008,0,1
 People Internal Gains Nominal, OFFICE WHOLEBUILDING - LG OFFICE C END_B - STORY MID6 OFFICE WHOLEBUILDING - LG OFFICE PEOPLE,LARGE OFFICE BLDG OCC,ZONE OFFICE WHOLEBUILDING - LG OFFICE C END_B - STORY MID6,20.90,1.1,1.1,5.382E-002,18.581,0.300,0.700,AutoCalculate,LARGE OFFICE ACTIVITY,No,3.8200E-008,0,1
 People Internal Gains Nominal, OFFICE WHOLEBUILDING - LG OFFICE A  - STORY MID10 OFFICE WHOLEBUILDING - LG OFFICE PEOPLE,LARGE OFFICE BLDG OCC,ZONE OFFICE WHOLEBUILDING - LG OFFICE A  - STORY MID10,169.89,9.1,9.1,5.382E-002,18.581,0.300,0.700,AutoCalculate,LARGE OFFICE ACTIVITY,No,3.8200E-008,0,9
 People Internal Gains Nominal, OFFICE WHOLEBUILDING - LG OFFICE A  - STORY TOP OFFICE WHOLEBUILDING - LG OFFICE PEOPLE,LARGE OFFICE BLDG OCC,ZONE OFFICE WHOLEBUILDING - LG OFFICE A  - STORY TOP,169.89,9.1,9.1,5.382E-002,18.581,0.300,0.700,AutoCalculate,LARGE OFFICE ACTIVITY,No,3.8200E-008,0,9
 People Internal Gains Nominal, OFFICE WHOLEBUILDING - LG OFFICE A  - STORY MID6 OFFICE WHOLEBUILDING - LG OFFICE PEOPLE,LARGE OFFICE BLDG OCC,ZONE OFFICE WHOLEBUILDING - LG OFFICE A  - STORY MID6,169.89,9.1,9.1,5.382E-002,18.581,0.300,0.700,AutoCalculate,LARGE OFFICE ACTIVITY,No,3.8200E-008,0,9
 People Internal Gains Nominal, OFFICE WHOLEBUILDING - LG OFFICE C END_A - STORY MID4 OFFICE WHOLEBUILDING - LG OFFICE PEOPLE,LARGE OFFICE BLDG OCC,ZONE OFFICE WHOLEBUILDING - LG OFFICE C END_A - STORY MID4,20.90,1.1,1.1,5.382E-002,18.581,0.300,0.700,AutoCalculate,LARGE OFFICE ACTIVITY,No,3.8200E-008,0,1
 People Internal Gains Nominal, OFFICE WHOLEBUILDING - LG OFFICE C  - STORY MID11 OFFICE WHOLEBUILDING - LG OFFICE PEOPLE,LARGE OFFICE BLDG OCC,ZONE OFFICE WHOLEBUILDING - LG OFFICE C  - STORY MID11,169.89,9.1,9.1,5.382E-002,18.581,0.300,0.700,AutoCalculate,LARGE OFFICE ACTIVITY,No,3.8200E-008,0,9
 People Internal Gains Nominal, OFFICE WHOLEBUILDING - LG OFFICE A  - STORY MID11 OFFICE WHOLEBUILDING - LG OFFICE PEOPLE,LARGE OFFICE BLDG OCC,ZONE OFFICE WHOLEBUILDING - LG OFFICE A  - STORY MID11,169.89,9.1,9.1,5.382E-002,18.581,0.300,0.700,AutoCalculate,LARGE OFFICE ACTIVITY,No,3.8200E-008,0,9
 People Internal Gains Nominal, OFFICE WHOLEBUILDING - LG OFFICE B END_B - STORY MID OFFICE WHOLEBUILDING - LG OFFICE PEOPLE,LARGE OFFICE BLDG OCC,ZONE OFFICE WHOLEBUILDING - LG OFFICE B END_B - STORY MID,64.04,3.4,3.4,5.382E-002,18.581,0.300,0.700,AutoCalculate,LARGE OFFICE ACTIVITY,No,3.8200E-008,0,3
 People Internal Gains Nominal, OFFICE WHOLEBUILDING - LG OFFICE A END_B - STORY MID9 OFFICE WHOLEBUILDING - LG OFFICE PEOPLE,LARGE OFFICE BLDG OCC,ZONE OFFICE WHOLEBUILDING - LG OFFICE A END_B - STORY MID9,20.90,1.1,1.1,5.382E-002,18.581,0.300,0.700,AutoCalculate,LARGE OFFICE ACTIVITY,No,3.8200E-008,0,1
 People Internal Gains Nominal, OFFICE WHOLEBUILDING - LG OFFICE B END_A - STORY MID10 OFFICE WHOLEBUILDING - LG OFFICE PEOPLE,LARGE OFFICE BLDG OCC,ZONE OFFICE WHOLEBUILDING - LG OFFICE B END_A - STORY MID10,64.04,3.4,3.4,5.382E-002,18.581,0.300,0.700,AutoCalculate,LARGE OFFICE ACTIVITY,No,3.8200E-008,0,3
 People Internal Gains Nominal, OFFICE WHOLEBUILDING - LG OFFICE C  - STORY MID9 OFFICE WHOLEBUILDING - LG OFFICE PEOPLE,LARGE OFFICE BLDG OCC,ZONE OFFICE WHOLEBUILDING - LG OFFICE C  - STORY MID9,169.89,9.1,9.1,5.382E-002,18.581,0.300,0.700,AutoCalculate,LARGE OFFICE ACTIVITY,No,3.8200E-008,0,9
 People Internal Gains Nominal, OFFICE WHOLEBUILDING - LG OFFICE C END_B - STORY MID9 OFFICE WHOLEBUILDING - LG OFFICE PEOPLE,LARGE OFFICE BLDG OCC,ZONE OFFICE WHOLEBUILDING - LG OFFICE C END_B - STORY MID9,20.90,1.1,1.1,5.382E-002,18.581,0.300,0.700,AutoCalculate,LARGE OFFICE ACTIVITY,No,3.8200E-008,0,1
 People Internal Gains Nominal, OFFICE WHOLEBUILDING - LG OFFICE C  - STORY MID3 OFFICE WHOLEBUILDING - LG OFFICE PEOPLE,LARGE OFFICE BLDG OCC,ZONE OFFICE WHOLEBUILDING - LG OFFICE C  - STORY MID3,169.89,9.1,9.1,5.382E-002,18.581,0.300,0.700,AutoCalculate,LARGE OFFICE ACTIVITY,No,3.8200E-008,0,9
 People Internal Gains Nominal, OFFICE WHOLEBUILDING - LG OFFICE B  - STORY MID5 OFFICE WHOLEBUILDING - LG OFFICE PEOPLE,LARGE OFFICE BLDG OCC,ZONE OFFICE WHOLEBUILDING - LG OFFICE B  - STORY MID5,520.49,28.0,28.0,5.382E-002,18.581,0.300,0.700,AutoCalculate,LARGE OFFICE ACTIVITY,No,3.8200E-008,0,28
 People Internal Gains Nominal, OFFICE WHOLEBUILDING - LG OFFICE C  - STORY MID7 OFFICE WHOLEBUILDING - LG OFFICE PEOPLE,LARGE OFFICE BLDG OCC,ZONE OFFICE WHOLEBUILDING - LG OFFICE C  - STORY MID7,169.89,9.1,9.1,5.382E-002,18.581,0.300,0.700,AutoCalculate,LARGE OFFICE ACTIVITY,No,3.8200E-008,0,9
 People Internal Gains Nominal, OFFICE WHOLEBUILDING - LG OFFICE A END_A - STORY MID9 OFFICE WHOLEBUILDING - LG OFFICE PEOPLE,LARGE OFFICE BLDG OCC,ZONE OFFICE WHOLEBUILDING - LG OFFICE A END_A - STORY MID9,20.90,1.1,1.1,5.382E-002,18.581,0.300,0.700,AutoCalculate,LARGE OFFICE ACTIVITY,No,3.8200E-008,0,1
 People Internal Gains Nominal, OFFICE WHOLEBUILDING - LG OFFICE B END_A - STORY MID11 OFFICE WHOLEBUILDING - LG OFFICE PEOPLE,LARGE OFFICE BLDG OCC,ZONE OFFICE WHOLEBUILDING - LG OFFICE B END_A - STORY MID11,64.04,3.4,3.4,5.382E-002,18.581,0.300,0.700,AutoCalculate,LARGE OFFICE ACTIVITY,No,3.8200E-008,0,3
 People Internal Gains Nominal, OFFICE WHOLEBUILDING - LG OFFICE B END_A - STORY TOP OFFICE WHOLEBUILDING - LG OFFICE PEOPLE,LARGE OFFICE BLDG OCC,ZONE OFFICE WHOLEBUILDING - LG OFFICE B END_A - STORY TOP,64.04,3.4,3.4,5.382E-002,18.581,0.300,0.700,AutoCalculate,LARGE OFFICE ACTIVITY,No,3.8200E-008,0,3
 People Internal Gains Nominal, OFFICE WHOLEBUILDING - LG OFFICE A END_B - STORY MID11 OFFICE WHOLEBUILDING - LG OFFICE PEOPLE,LARGE OFFICE BLDG OCC,ZONE OFFICE WHOLEBUILDING - LG OFFICE A END_B - STORY MID11,20.90,1.1,1.1,5.382E-002,18.581,0.300,0.700,AutoCalculate,LARGE OFFICE ACTIVITY,No,3.8200E-008,0,1
[...]
 Warmup Convergence Information,ZONE OFFICE WHOLEBUILDING - LG OFFICE B END_A - STORY MID7,SizingPeriod: MAXWELL AFB SEPTEMBER .4% CONDNS WB=>MCDB 1,7.7065843670E-002,0.1294883657,Pass,Pass,3.0690880147E-002,3.2187702161E-002,Pass,Pass
 Warmup Convergence Information,ZONE OFFICE WHOLEBUILDING - LG OFFICE B END_A - STORY MID8,SizingPeriod: MAXWELL AFB SEPTEMBER .4% CONDNS WB=>MCDB 1,7.6974061503E-002,0.1289602243,Pass,Pass,3.0697277786E-002,3.2126122284E-002,Pass,Pass
 Warmup Convergence Information,ZONE OFFICE WHOLEBUILDING - LG OFFICE B END_A - STORY MID9,SizingPeriod: MAXWELL AFB SEPTEMBER .4% CONDNS WB=>MCDB 1,7.6709341594E-002,0.1285018504,Pass,Pass,3.0604200454E-002,3.1945602586E-002,Pass,Pass
 Warmup Convergence Information,ZONE OFFICE WHOLEBUILDING - LG OFFICE B END_A - STORY TOP,SizingPeriod: MAXWELL AFB SEPTEMBER .4% CONDNS WB=>MCDB 1,0.1022306324,0.2652321411,Pass,Pass,5.7058191227E-002,0.1016558763,Pass,Pass
 Warmup Convergence Information,ZONE OFFICE WHOLEBUILDING - LG OFFICE B END_B - STORY MID,SizingPeriod: MAXWELL AFB SEPTEMBER .4% CONDNS WB=>MCDB 1,3.3622302202E-002,4.4558250133E-002,Pass,Pass,1.4484908480E-002,1.2639314373E-002,Pass,Pass
 Warmup Convergence Information,ZONE OFFICE WHOLEBUILDING - LG OFFICE B END_B - STORY MID10,SizingPeriod: MAXWELL AFB SEPTEMBER .4% CONDNS WB=>MCDB 1,3.4947656483E-002,4.5136810678E-002,Pass,Pass,1.4547198759E-002,1.2589631990E-002,Pass,Pass
 Warmup Convergence Information,ZONE OFFICE WHOLEBUILDING - LG OFFICE B END_B - STORY MID11,SizingPeriod: MAXWELL AFB SEPTEMBER .4% CONDNS WB=>MCDB 1,3.5079791936E-002,4.5231275581E-002,Pass,Pass,1.4551490734E-002,1.2599172859E-002,Pass,Pass
 Warmup Convergence Information,ZONE OFFICE WHOLEBUILDING - LG OFFICE B END_B - STORY MID2,SizingPeriod: MAXWELL AFB SEPTEMBER .4% CONDNS WB=>MCDB 1,3.3786371502E-002,4.4586012803E-002,Pass,Pass,1.4496370290E-002,1.2615099687E-002,Pass,Pass
 Warmup Convergence Information,ZONE OFFICE WHOLEBUILDING - LG OFFICE B END_B - STORY MID3,SizingPeriod: MAXWELL AFB SEPTEMBER .4% CONDNS WB=>MCDB 1,3.3944034705E-002,4.4622949849E-002,Pass,Pass,1.4505593110E-002,1.2591950778E-002,Pass,Pass
 Warmup Convergence Information,ZONE OFFICE WHOLEBUILDING - LG OFFICE B END_B - STORY MID4,SizingPeriod: MAXWELL AFB SEPTEMBER .4% CONDNS WB=>MCDB 1,3.4095173463E-002,4.4671168631E-002,Pass,Pass,1.4513655301E-002,1.2572496359E-002,Pass,Pass
 Warmup Convergence Information,ZONE OFFICE WHOLEBUILDING - LG OFFICE B END_B - STORY MID5,SizingPeriod: MAXWELL AFB SEPTEMBER .4% CONDNS WB=>MCDB 1,3.4243373464E-002,4.4729883656E-002,Pass,Pass,1.4520649619E-002,1.2557707505E-002,Pass,Pass
 Warmup Convergence Information,ZONE OFFICE WHOLEBUILDING - LG OFFICE B END_B - STORY MID6,SizingPeriod: MAXWELL AFB SEPTEMBER .4% CONDNS WB=>MCDB 1,3.4389374837E-002,4.4797973164E-002,Pass,Pass,1.4527017790E-002,1.2551710950E-002,Pass,Pass
 Warmup Convergence Information,ZONE OFFICE WHOLEBUILDING - LG OFFICE B END_B - STORY MID7,SizingPeriod: MAXWELL AFB SEPTEMBER .4% CONDNS WB=>MCDB 1,3.4531706367E-002,4.4871496628E-002,Pass,Pass,1.4532765773E-002,1.2552126627E-002,Pass,Pass
 Warmup Convergence Information,ZONE OFFICE WHOLEBUILDING - LG OFFICE B END_B - STORY MID8,SizingPeriod: MAXWELL AFB SEPTEMBER .4% CONDNS WB=>MCDB 1,3.4673080640E-002,4.4953669378E-002,Pass,Pass,1.4538198086E-002,1.2558909328E-002,Pass,Pass
 Warmup Convergence Information,ZONE OFFICE WHOLEBUILDING - LG OFFICE B END_B - STORY MID9,SizingPeriod: MAXWELL AFB SEPTEMBER .4% CONDNS WB=>MCDB 1,3.4811989334E-002,4.5042039509E-002,Pass,Pass,1.4543102090E-002,1.2571181537E-002,Pass,Pass
 Warmup Convergence Information,ZONE OFFICE WHOLEBUILDING - LG OFFICE B END_B - STORY TOP,SizingPeriod: MAXWELL AFB SEPTEMBER .4% CONDNS WB=>MCDB 1,6.6914037565E-002,8.3573032534E-002,Pass,Pass,2.4967676495E-002,2.3918694613E-002,Pass,Pass
 Warmup Convergence Information,ZONE OFFICE WHOLEBUILDING - LG OFFICE C  - STORY GROUND,SizingPeriod: MAXWELL AFB SEPTEMBER .4% CONDNS WB=>MCDB 1,2.4697420768E-002,2.6173660432E-002,Pass,Pass,2.1691005264E-002,2.6237933481E-002,Pass,Pass
 Warmup Convergence Information,ZONE OFFICE WHOLEBUILDING - LG OFFICE C  - STORY MID,SizingPeriod: MAXWELL AFB SEPTEMBER .4% CONDNS WB=>MCDB 1,7.6356970279E-002,0.1242783664,Pass,Pass,3.5479718925E-002,4.7232623694E-002,Pass,Pass
 Warmup Convergence Information,ZONE OFFICE WHOLEBUILDING - LG OFFICE C  - STORY MID10,SizingPeriod: MAXWELL AFB SEPTEMBER .4% CONDNS WB=>MCDB 1,7.5961544651E-002,0.1211349451,Pass,Pass,3.5093779106E-002,4.6858080905E-002,Pass,Pass
 Warmup Convergence Information,ZONE OFFICE WHOLEBUILDING - LG OFFICE C  - STORY MID11,SizingPeriod: MAXWELL AFB SEPTEMBER .4% CONDNS WB=>MCDB 1,7.6017522796E-002,0.1211247105,Pass,Pass,3.5221984592E-002,4.6931333680E-002,Pass,Pass
 Warmup Convergence Information,ZONE OFFICE WHOLEBUILDING - LG OFFICE C  - STORY MID2,SizingPeriod: MAXWELL AFB SEPTEMBER .4% CONDNS WB=>MCDB 1,7.6192383066E-002,0.1233522549,Pass,Pass,3.5320270149E-002,4.7000492205E-002,Pass,Pass
 Warmup Convergence Information,ZONE OFFICE WHOLEBUILDING - LG OFFICE C  - STORY MID3,SizingPeriod: MAXWELL AFB SEPTEMBER .4% CONDNS WB=>MCDB 1,7.6244940802E-002,0.1226404368,Pass,Pass,3.5232891257E-002,4.6923843235E-002,Pass,Pass
 Warmup Convergence Information,ZONE OFFICE WHOLEBUILDING - LG OFFICE C  - STORY MID4,SizingPeriod: MAXWELL AFB SEPTEMBER .4% CONDNS WB=>MCDB 1,7.6094031669E-002,0.1220873232,Pass,Pass,3.5240488365E-002,4.6970242031E-002,Pass,Pass
 Warmup Convergence Information,ZONE OFFICE WHOLEBUILDING - LG OFFICE C  - STORY MID5,SizingPeriod: MAXWELL AFB SEPTEMBER .4% CONDNS WB=>MCDB 1,7.6025418235E-002,0.1217308468,Pass,Pass,3.5131946612E-002,4.6814739368E-002,Pass,Pass
 Warmup Convergence Information,ZONE OFFICE WHOLEBUILDING - LG OFFICE C  - STORY MID6,SizingPeriod: MAXWELL AFB SEPTEMBER .4% CONDNS WB=>MCDB 1,7.6033804712E-002,0.1215405332,Pass,Pass,3.5078603327E-002,4.6770051141E-002,Pass,Pass
 Warmup Convergence Information,ZONE OFFICE WHOLEBUILDING - LG OFFICE C  - STORY MID7,SizingPeriod: MAXWELL AFB SEPTEMBER .4% CONDNS WB=>MCDB 1,7.6106942273E-002,0.1213300792,Pass,Pass,3.5237558921E-002,4.7040000324E-002,Pass,Pass
 Warmup Convergence Information,ZONE OFFICE WHOLEBUILDING - LG OFFICE C  - STORY MID8,SizingPeriod: MAXWELL AFB SEPTEMBER .4% CONDNS WB=>MCDB 1,7.6049393406E-002,0.1211471664,Pass,Pass,3.5114581188E-002,4.6859446200E-002,Pass,Pass
 Warmup Convergence Information,ZONE OFFICE WHOLEBUILDING - LG OFFICE C  - STORY MID9,SizingPeriod: MAXWELL AFB SEPTEMBER .4% CONDNS WB=>MCDB 1,7.5943902006E-002,0.1211543989,Pass,Pass,3.5160795729E-002,4.6949522903E-002,Pass,Pass
 Warmup Convergence Information,ZONE OFFICE WHOLEBUILDING - LG OFFICE C  - STORY TOP,SizingPeriod: MAXWELL AFB SEPTEMBER .4% CONDNS WB=>MCDB 1,0.1046072081,0.2684703031,Pass,Pass,6.4415725222E-002,0.1217900785,Pass,Pass
 Warmup Convergence Information,ZONE OFFICE WHOLEBUILDING - LG OFFICE C END_A - STORY GROUND,SizingPeriod: MAXWELL AFB SEPTEMBER .4% CONDNS WB=>MCDB 1,5.3176651695E-002,6.6822559780E-002,Pass,Pass,2.4811293526E-002,2.2836108631E-002,Pass,Pass
 Warmup Convergence Information,ZONE OFFICE WHOLEBUILDING - LG OFFICE C END_A - STORY MID,SizingPeriod: MAXWELL AFB SEPTEMBER .4% CONDNS WB=>MCDB 1,9.8644884389E-002,0.2479228784,Pass,Pass,5.4004494681E-002,8.1845025894E-002,Pass,Pass
 Warmup Convergence Information,ZONE OFFICE WHOLEBUILDING - LG OFFICE C END_A - STORY MID10,SizingPeriod: MAXWELL AFB SEPTEMBER .4% CONDNS WB=>MCDB 1,9.7813688228E-002,0.2427417432,Pass,Pass,5.4063977369E-002,8.2505593766E-002,Pass,Pass
 Warmup Convergence Information,ZONE OFFICE WHOLEBUILDING - LG OFFICE C END_A - STORY MID11,SizingPeriod: MAXWELL AFB SEPTEMBER .4% CONDNS WB=>MCDB 1,9.7471808991E-002,0.2425052711,Pass,Pass,5.3986802077E-002,8.2173755716E-002,Pass,Pass
 Warmup Convergence Information,ZONE OFFICE WHOLEBUILDING - LG OFFICE C END_A - STORY MID2,SizingPeriod: MAXWELL AFB SEPTEMBER .4% CONDNS WB=>MCDB 1,9.8355355273E-002,0.2465068141,Pass,Pass,5.4044372619E-002,8.2252246331E-002,Pass,Pass
 Warmup Convergence Information,ZONE OFFICE WHOLEBUILDING - LG OFFICE C END_A - STORY MID3,SizingPeriod: MAXWELL AFB SEPTEMBER .4% CONDNS WB=>MCDB 1,9.8168053680E-002,0.2453980171,Pass,Pass,5.3785332343E-002,8.1115468657E-002,Pass,Pass
 Warmup Convergence Information,ZONE OFFICE WHOLEBUILDING - LG OFFICE C END_A - STORY MID4,SizingPeriod: MAXWELL AFB SEPTEMBER .4% CONDNS WB=>MCDB 1,9.8042927369E-002,0.2445173468,Pass,Pass,5.3820937585E-002,8.1491378070E-002,Pass,Pass
 Warmup Convergence Information,ZONE OFFICE WHOLEBUILDING - LG OFFICE C END_A - STORY MID5,SizingPeriod: MAXWELL AFB SEPTEMBER .4% CONDNS WB=>MCDB 1,9.7953589330E-002,0.2440408979,Pass,Pass,5.3836046766E-002,8.1315740721E-002,Pass,Pass
 Warmup Convergence Information,ZONE OFFICE WHOLEBUILDING - LG OFFICE C END_A - STORY MID6,SizingPeriod: MAXWELL AFB SEPTEMBER .4% CONDNS WB=>MCDB 1,9.7863775437E-002,0.2436248061,Pass,Pass,5.3900825745E-002,8.1874885170E-002,Pass,Pass
 Warmup Convergence Information,ZONE OFFICE WHOLEBUILDING - LG OFFICE C END_A - STORY MID7,SizingPeriod: MAXWELL AFB SEPTEMBER .4% CONDNS WB=>MCDB 1,9.7712769488E-002,0.2433142418,Pass,Pass,5.3895294387E-002,8.1848276113E-002,Pass,Pass
 Warmup Convergence Information,ZONE OFFICE WHOLEBUILDING - LG OFFICE C END_A - STORY MID8,SizingPeriod: MAXWELL AFB SEPTEMBER .4% CONDNS WB=>MCDB 1,9.7749198602E-002,0.2429362950,Pass,Pass,5.3877484821E-002,8.1755012557E-002,Pass,Pass
 Warmup Convergence Information,ZONE OFFICE WHOLEBUILDING - LG OFFICE C END_A - STORY MID9,SizingPeriod: MAXWELL AFB SEPTEMBER .4% CONDNS WB=>MCDB 1,9.7711873009E-002,0.2430246346,Pass,Pass,5.3947512510E-002,8.2164226226E-002,Pass,Pass
 Warmup Convergence Information,ZONE OFFICE WHOLEBUILDING - LG OFFICE C END_A - STORY TOP,SizingPeriod: MAXWELL AFB SEPTEMBER .4% CONDNS WB=>MCDB 1,0.1226828555,0.3924121080,Pass,Pass,9.4130862393E-002,0.2435085618,Pass,Pass
 Warmup Convergence Information,ZONE OFFICE WHOLEBUILDING - LG OFFICE C END_B - STORY MID,SizingPeriod: MAXWELL AFB SEPTEMBER .4% CONDNS WB=>MCDB 1,9.3076907164E-002,0.2105274770,Pass,Pass,4.9322773683E-002,7.9597308200E-002,Pass,Pass
 Warmup Convergence Information,ZONE OFFICE WHOLEBUILDING - LG OFFICE C END_B - STORY MID10,SizingPeriod: MAXWELL AFB SEPTEMBER .4% CONDNS WB=>MCDB 1,9.2874871529E-002,0.2090719473,Pass,Pass,4.9466891704E-002,8.1051857795E-002,Pass,Pass
 Warmup Convergence Information,ZONE OFFICE WHOLEBUILDING - LG OFFICE C END_B - STORY MID11,SizingPeriod: MAXWELL AFB SEPTEMBER .4% CONDNS WB=>MCDB 1,9.2908633222E-002,0.2094411178,Pass,Pass,4.9433843273E-002,8.0647588035E-002,Pass,Pass
 Warmup Convergence Information,ZONE OFFICE WHOLEBUILDING - LG OFFICE C END_B - STORY MID2,SizingPeriod: MAXWELL AFB SEPTEMBER .4% CONDNS WB=>MCDB 1,9.2925999836E-002,0.2096332099,Pass,Pass,4.9195623261E-002,7.9568288299E-002,Pass,Pass
 Warmup Convergence Information,ZONE OFFICE WHOLEBUILDING - LG OFFICE C END_B - STORY MID3,SizingPeriod: MAXWELL AFB SEPTEMBER .4% CONDNS WB=>MCDB 1,9.3110196058E-002,0.2093450160,Pass,Pass,4.9099971732E-002,7.9310180403E-002,Pass,Pass
 Warmup Convergence Information,ZONE OFFICE WHOLEBUILDING - LG OFFICE C END_B - STORY MID4,SizingPeriod: MAXWELL AFB SEPTEMBER .4% CONDNS WB=>MCDB 1,9.2961573625E-002,0.2091138889,Pass,Pass,4.9112208244E-002,7.9399811959E-002,Pass,Pass
 Warmup Convergence Information,ZONE OFFICE WHOLEBUILDING - LG OFFICE C END_B - STORY MID5,SizingPeriod: MAXWELL AFB SEPTEMBER .4% CONDNS WB=>MCDB 1,9.2767981148E-002,0.2089375282,Pass,Pass,4.9260711274E-002,7.9964077330E-002,Pass,Pass
 Warmup Convergence Information,ZONE OFFICE WHOLEBUILDING - LG OFFICE C END_B - STORY MID6,SizingPeriod: MAXWELL AFB SEPTEMBER .4% CONDNS WB=>MCDB 1,9.2721915578E-002,0.2086314244,Pass,Pass,4.9215691944E-002,7.9545784062E-002,Pass,Pass
 Warmup Convergence Information,ZONE OFFICE WHOLEBUILDING - LG OFFICE C END_B - STORY MID7,SizingPeriod: MAXWELL AFB SEPTEMBER .4% CONDNS WB=>MCDB 1,9.2759193209E-002,0.2086379416,Pass,Pass,4.9044647165E-002,7.9127413117E-002,Pass,Pass
 Warmup Convergence Information,ZONE OFFICE WHOLEBUILDING - LG OFFICE C END_B - STORY MID8,SizingPeriod: MAXWELL AFB SEPTEMBER .4% CONDNS WB=>MCDB 1,9.2837068402E-002,0.2088145906,Pass,Pass,4.9164698686E-002,7.9686761685E-002,Pass,Pass
 Warmup Convergence Information,ZONE OFFICE WHOLEBUILDING - LG OFFICE C END_B - STORY MID9,SizingPeriod: MAXWELL AFB SEPTEMBER .4% CONDNS WB=>MCDB 1,9.2773029644E-002,0.2088511232,Pass,Pass,4.9271184572E-002,8.0056783608E-002,Pass,Pass
 Warmup Convergence Information,ZONE OFFICE WHOLEBUILDING - LG OFFICE C END_B - STORY TOP,SizingPeriod: MAXWELL AFB SEPTEMBER .4% CONDNS WB=>MCDB 1,0.1168748353,0.3529559606,Pass,Pass,8.9441934104E-002,0.2364093906,Pass,Pass
Environment,MAXWELL AFB ANN CLG .4% CONDNS DB=>MWB 1 HVAC Sizing Pass 1,SizingPeriod:DesignDay,07/21,07/21,SummerDesignDay,1,N/A,N/A,N/A,N/A,N/A,N/A,Clark and Allen
Environment:Daylight Saving,No,SizingPeriod:DesignDay
Environment,MAXWELL AFB ANN CLG .4% CONDNS WB=>MDB 1 HVAC Sizing Pass 1,SizingPeriod:DesignDay,07/21,07/21,SummerDesignDay,1,N/A,N/A,N/A,N/A,N/A,N/A,Clark and Allen
Environment:Daylight Saving,No,SizingPeriod:DesignDay
Environment,MAXWELL AFB ANN CLG 1% CONDNS DB=>MWB 1 HVAC Sizing Pass 1,SizingPeriod:DesignDay,07/21,07/21,SummerDesignDay,1,N/A,N/A,N/A,N/A,N/A,N/A,Clark and Allen
Environment:Daylight Saving,No,SizingPeriod:DesignDay
Environment,MAXWELL AFB ANN CLG 2% CONDNS DP=>MDB 1 HVAC Sizing Pass 1,SizingPeriod:DesignDay,07/21,07/21,SummerDesignDay,1,N/A,N/A,N/A,N/A,N/A,N/A,Clark and Allen
Environment:Daylight Saving,No,SizingPeriod:DesignDay
Environment,MAXWELL AFB ANN HTG 99% CONDNS DB 1 HVAC Sizing Pass 1,SizingPeriod:DesignDay,01/21,01/21,WinterDesignDay,1,N/A,N/A,N/A,N/A,N/A,N/A,Clark and Allen
Environment:Daylight Saving,No,SizingPeriod:DesignDay
Environment,MAXWELL AFB ANN HTG 99.6% CONDNS DB 1 HVAC Sizing Pass 1,SizingPeriod:DesignDay,01/21,01/21,WinterDesignDay,1,N/A,N/A,N/A,N/A,N/A,N/A,Clark and Allen
Environment:Daylight Saving,No,SizingPeriod:DesignDay
Environment,MAXWELL AFB ANN HTG WIND 99% CONDNS WS=>MCDB 1 HVAC Sizing Pass 1,SizingPeriod:DesignDay,01/21,01/21,WinterDesignDay,1,N/A,N/A,N/A,N/A,N/A,N/A,Clark and Allen
Environment:Daylight Saving,No,SizingPeriod:DesignDay
Environment,MAXWELL AFB APRIL .4% CONDNS DB=>MCWB 1 HVAC Sizing Pass 1,SizingPeriod:DesignDay,04/21,04/21,SummerDesignDay,1,N/A,N/A,N/A,N/A,N/A,N/A,Clark and Allen
Environment:Daylight Saving,No,SizingPeriod:DesignDay
Environment,MAXWELL AFB APRIL .4% CONDNS WB=>MCDB 1 HVAC Sizing Pass 1,SizingPeriod:DesignDay,04/21,04/21,SummerDesignDay,1,N/A,N/A,N/A,N/A,N/A,N/A,Clark and Allen
Environment:Daylight Saving,No,SizingPeriod:DesignDay
Environment,MAXWELL AFB AUGUST .4% CONDNS DB=>MCWB 1 HVAC Sizing Pass 1,SizingPeriod:DesignDay,08/21,08/21,SummerDesignDay,1,N/A,N/A,N/A,N/A,N/A,N/A,Clark and Allen
Environment:Daylight Saving,No,SizingPeriod:DesignDay
Environment,MAXWELL AFB AUGUST .4% CONDNS WB=>MCDB 1 HVAC Sizing Pass 1,SizingPeriod:DesignDay,08/21,08/21,SummerDesignDay,1,N/A,N/A,N/A,N/A,N/A,N/A,Clark and Allen
Environment:Daylight Saving,No,SizingPeriod:DesignDay
Environment,MAXWELL AFB DECEMBER .4% CONDNS DB=>MCWB 1 HVAC Sizing Pass 1,SizingPeriod:DesignDay,12/21,12/21,SummerDesignDay,1,N/A,N/A,N/A,N/A,N/A,N/A,Clark and Allen
Environment:Daylight Saving,No,SizingPeriod:DesignDay
Environment,MAXWELL AFB DECEMBER .4% CONDNS WB=>MCDB 1 HVAC Sizing Pass 1,SizingPeriod:DesignDay,12/21,12/21,SummerDesignDay,1,N/A,N/A,N/A,N/A,N/A,N/A,Clark and Allen
Environment:Daylight Saving,No,SizingPeriod:DesignDay
Environment,MAXWELL AFB FEBRUARY .4% CONDNS DB=>MCWB 1 HVAC Sizing Pass 1,SizingPeriod:DesignDay,02/21,02/21,SummerDesignDay,1,N/A,N/A,N/A,N/A,N/A,N/A,Clark and Allen
Environment:Daylight Saving,No,SizingPeriod:DesignDay
Environment,MAXWELL AFB FEBRUARY .4% CONDNS WB=>MCDB 1 HVAC Sizing Pass 1,SizingPeriod:DesignDay,02/21,02/21,SummerDesignDay,1,N/A,N/A,N/A,N/A,N/A,N/A,Clark and Allen
Environment:Daylight Saving,No,SizingPeriod:DesignDay
Environment,MAXWELL AFB JANUARY .4% CONDNS DB=>MCWB 1 HVAC Sizing Pass 1,SizingPeriod:DesignDay,01/21,01/21,SummerDesignDay,1,N/A,N/A,N/A,N/A,N/A,N/A,Clark and Allen
Environment:Daylight Saving,No,SizingPeriod:DesignDay
Environment,MAXWELL AFB JANUARY .4% CONDNS WB=>MCDB 1 HVAC Sizing Pass 1,SizingPeriod:DesignDay,01/21,01/21,SummerDesignDay,1,N/A,N/A,N/A,N/A,N/A,N/A,Clark and Allen
Environment:Daylight Saving,No,SizingPeriod:DesignDay
Environment,MAXWELL AFB JULY .4% CONDNS DB=>MCWB 1 HVAC Sizing Pass 1,SizingPeriod:DesignDay,07/21,07/21,SummerDesignDay,1,N/A,N/A,N/A,N/A,N/A,N/A,Clark and Allen
Environment:Daylight Saving,No,SizingPeriod:DesignDay
Environment,MAXWELL AFB JULY .4% CONDNS WB=>MCDB 1 HVAC Sizing Pass 1,SizingPeriod:DesignDay,07/21,07/21,SummerDesignDay,1,N/A,N/A,N/A,N/A,N/A,N/A,Clark and Allen
Environment:Daylight Saving,No,SizingPeriod:DesignDay
Environment,MAXWELL AFB JUNE .4% CONDNS DB=>MCWB 1 HVAC Sizing Pass 1,SizingPeriod:DesignDay,06/21,06/21,SummerDesignDay,1,N/A,N/A,N/A,N/A,N/A,N/A,Clark and Allen
Environment:Daylight Saving,No,SizingPeriod:DesignDay
Environment,MAXWELL AFB JUNE .4% CONDNS WB=>MCDB 1 HVAC Sizing Pass 1,SizingPeriod:DesignDay,06/21,06/21,SummerDesignDay,1,N/A,N/A,N/A,N/A,N/A,N/A,Clark and Allen
Environment:Daylight Saving,No,SizingPeriod:DesignDay
Environment,MAXWELL AFB MARCH .4% CONDNS DB=>MCWB 1 HVAC Sizing Pass 1,SizingPeriod:DesignDay,03/21,03/21,SummerDesignDay,1,N/A,N/A,N/A,N/A,N/A,N/A,Clark and Allen
Environment:Daylight Saving,No,SizingPeriod:DesignDay
Environment,MAXWELL AFB MARCH .4% CONDNS WB=>MCDB 1 HVAC Sizing Pass 1,SizingPeriod:DesignDay,03/21,03/21,SummerDesignDay,1,N/A,N/A,N/A,N/A,N/A,N/A,Clark and Allen
Environment:Daylight Saving,No,SizingPeriod:DesignDay
Environment,MAXWELL AFB MAY .4% CONDNS DB=>MCWB 1 HVAC Sizing Pass 1,SizingPeriod:DesignDay,05/21,05/21,SummerDesignDay,1,N/A,N/A,N/A,N/A,N/A,N/A,Clark and Allen
Environment:Daylight Saving,No,SizingPeriod:DesignDay
Environment,MAXWELL AFB MAY .4% CONDNS WB=>MCDB 1 HVAC Sizing Pass 1,SizingPeriod:DesignDay,05/21,05/21,SummerDesignDay,1,N/A,N/A,N/A,N/A,N/A,N/A,Clark and Allen
Environment:Daylight Saving,No,SizingPeriod:DesignDay
Environment,MAXWELL AFB NOVEMBER .4% CONDNS DB=>MCWB 1 HVAC Sizing Pass 1,SizingPeriod:DesignDay,11/21,11/21,SummerDesignDay,1,N/A,N/A,N/A,N/A,N/A,N/A,Clark and Allen
Environment:Daylight Saving,No,SizingPeriod:DesignDay
Environment,MAXWELL AFB NOVEMBER .4% CONDNS WB=>MCDB 1 HVAC Sizing Pass 1,SizingPeriod:DesignDay,11/21,11/21,SummerDesignDay,1,N/A,N/A,N/A,N/A,N/A,N/A,Clark and Allen
Environment:Daylight Saving,No,SizingPeriod:DesignDay
Environment,MAXWELL AFB OCTOBER .4% CONDNS DB=>MCWB 1 HVAC Sizing Pass 1,SizingPeriod:DesignDay,10/21,10/21,SummerDesignDay,1,N/A,N/A,N/A,N/A,N/A,N/A,Clark and Allen
Environment:Daylight Saving,No,SizingPeriod:DesignDay
Environment,MAXWELL AFB OCTOBER .4% CONDNS WB=>MCDB 1 HVAC Sizing Pass 1,SizingPeriod:DesignDay,10/21,10/21,SummerDesignDay,1,N/A,N/A,N/A,N/A,N/A,N/A,Clark and Allen
Environment:Daylight Saving,No,SizingPeriod:DesignDay
Environment,MAXWELL AFB SEPTEMBER .4% CONDNS DB=>MCWB 1 HVAC Sizing Pass 1,SizingPeriod:DesignDay,09/21,09/21,SummerDesignDay,1,N/A,N/A,N/A,N/A,N/A,N/A,Clark and Allen
Environment:Daylight Saving,No,SizingPeriod:DesignDay
Environment,MAXWELL AFB SEPTEMBER .4% CONDNS WB=>MCDB 1 HVAC Sizing Pass 1,SizingPeriod:DesignDay,09/21,09/21,SummerDesignDay,1,N/A,N/A,N/A,N/A,N/A,N/A,Clark and Allen
Environment:Daylight Saving,No,SizingPeriod:DesignDay
! <Program Control Information:Threads/Parallel Sims>, Threading Supported,Maximum Number of Threads, Env Set Threads (OMP_NUM_THREADS), EP Env Set Threads (EP_OMP_NUM_THREADS), IDF Set Threads, Number of Threads Used (Interior Radiant Exchange), Number Nominal Surfaces, Number Parallel Sims
Program Control:Threads/Parallel Sims, No,1, N/A, N/A, N/A, N/A, N/A, N/A
End of Data
