{
   "completed_at" : "20240119T210301Z",
   "completed_status" : "Success",
   "created_at" : "2024-01-19T14:00:09.716814",
   "current_step" : 9,
   "eplusout_err" : "Program Version,EnergyPlus, Version 23.2.0-7636e6b3e9, YMD=2024.01.19 14:01,\n   ************* Beginning Zone Sizing Calculations\n   ** Warning ** ProcessScheduleInput: Schedule:Day:Interval=\"ECONOMIZER MAX OA FRACTION 70 PCT DEFAULT\", Blank Schedule Type Limits Name input -- will not be validated.\n   ** Warning ** ProcessScheduleInput: Schedule:Day:Interval=\"SCHEDULE DAY 1\", Blank Schedule Type Limits Name input -- will not be validated.\n   ** Warning ** ProcessScheduleInput: Schedule:Day:Interval=\"SCHEDULE DAY 4\", Blank Schedule Type Limits Name input -- will not be validated.\n   ** Warning ** ProcessScheduleInput: Schedule:Year=\"ECONOMIZER MAX OA FRACTION 70 PCT\", Blank Schedule Type Limits Name input -- will not be validated.\n   ** Warning ** ProcessScheduleInput: Schedule:Constant=\"TEMPORARY PIPE INDOOR AMBIENT TEMP 95.0F\", Blank Schedule Type Limits Name input -- will not be validated.\n   ** Warning ** ProcessScheduleInput: Schedule:Constant=\"ALWAYS OFF DISCRETE\", Blank Schedule Type Limits Name input -- will not be validated.\n   ** Warning ** ProcessScheduleInput: Schedule:Constant=\"ALWAYS ON CONTINUOUS\", Blank Schedule Type Limits Name input -- will not be validated.\n   ** Warning ** CheckUsedConstructions: There are 13 nominally unused constructions in input.\n   **   ~~~   ** For explicit details on each unused construction, use Output:Diagnostics,DisplayExtraWarnings;\n   ** Warning ** GetInternalHeatGains: People=\"OFFICE WHOLEBUILDING - LG OFFICE PEOPLE\" has comfort related schedules but no thermal comfort model selected.\n   **   ~~~   ** If schedules are specified for air velocity, clothing insulation, and/or work efficiency but no thermal comfort\n   **   ~~~   ** thermal comfort model is selected, the schedules will be listed as unused schedules in the .err file.\n   **   ~~~   ** To avoid these errors, select a valid thermal comfort model or eliminate these schedules in the PEOPLE input.\n   ** Warning ** GetInternalHeatGains: People=\"OFFICE WHOLEBUILDING - LG OFFICE PEOPLE\" has comfort related schedules but no thermal comfort model selected.\n   **   ~~~   ** If schedules are specified for air velocity, clothing insulation, and/or work efficiency but no thermal comfort\n   **   ~~~   ** thermal comfort model is selected, the schedules will be listed as unused schedules in the .err file.\n   **   ~~~   ** To avoid these errors, select a valid thermal comfort model or eliminate these schedules in the PEOPLE input.\n   ** Warning ** GetInternalHeatGains: People=\"OFFICE WHOLEBUILDING - LG OFFICE PEOPLE\" has comfort related schedules but no thermal comfort model selected.\n   **   ~~~   ** If schedules are specified for air velocity, clothing insulation, and/or work efficiency but no thermal comfort\n   **   ~~~   ** thermal comfort model is selected, the schedules will be listed as unused schedules in the .err file.\n   **   ~~~   ** To avoid these errors, select a valid thermal comfort model or eliminate these schedules in the PEOPLE input.\n   ** Warning ** GetInternalHeatGains: People=\"OFFICE WHOLEBUILDING - LG OFFICE PEOPLE\" has comfort related schedules but no thermal comfort model selected.\n   **   ~~~   ** If schedules are specified for air velocity, clothing insulation, and/or work efficiency but no thermal comfort\n   **   ~~~   ** thermal comfort model is selected, the schedules will be listed as unused schedules in the .err file.\n   **   ~~~   ** To avoid these errors, select a valid thermal comfort model or eliminate these schedules in the PEOPLE input.\n   ** Warning ** GetInternalHeatGains: People=\"OFFICE WHOLEBUILDING - LG OFFICE PEOPLE\" has comfort related schedules but no thermal comfort model selected.\n   **   ~~~   ** If schedules are specified for air velocity, clothing insulation, and/or work efficiency but no thermal comfort\n   **   ~~~   ** thermal comfort model is selected, the schedules will be listed as unused schedules in the .err file.\n   **   ~~~   ** To avoid these errors, select a valid thermal comfort model or eliminate these schedules in the PEOPLE input.\n   ** Warning ** GetInternalHeatGains: People=\"OFFICE WHOLEBUILDING - LG OFFICE PEOPLE\" has comfort related schedules but no thermal comfort model selected.\n   **   ~~~   ** If schedules are specified for air velocity, clothing insulation, and/or work efficiency but no thermal comfort\n   **   ~~~   ** thermal comfort model is selected, the schedules will be listed as unused schedules in the .err file.\n   **   ~~~   ** To avoid these errors, select a valid thermal comfort model or eliminate these schedules in the PEOPLE input.\n   ** Warning ** GetInternalHeatGains: People=\"OFFICE WHOLEBUILDING - LG OFFICE PEOPLE\" has comfort related schedules but no thermal comfort model selected.\n   **   ~~~   ** If schedules are specified for air velocity, clothing insulation, and/or work efficiency but no thermal comfort\n   **   ~~~   ** thermal comfort model is selected, the schedules will be listed as unused schedules in the .err file.\n   **   ~~~   ** To avoid these errors, select a valid thermal comfort model or eliminate these schedules in the PEOPLE input.\n   ** Warning ** GetInternalHeatGains: People=\"OFFICE WHOLEBUILDING - LG OFFICE PEOPLE\" has comfort related schedules but no thermal comfort model selected.\n   **   ~~~   ** If schedules are specified for air velocity, clothing insulation, and/or work efficiency but no thermal comfort\n   **   ~~~   ** thermal comfort model is selected, the schedules will be listed as unused schedules in the .err file.\n   **   ~~~   ** To avoid these errors, select a valid thermal comfort model or eliminate these schedules in the PEOPLE input.\n   ** Warning ** GetInternalHeatGains: People=\"OFFICE WHOLEBUILDING - LG OFFICE PEOPLE\" has comfort related schedules but no thermal comfort model selected.\n   **   ~~~   ** If schedules are specified for air velocity, clothing insulation, and/or work efficiency but no thermal comfort\n   **   ~~~   ** thermal comfort model is selected, the schedules will be listed as unused schedules in the .err file.\n   **   ~~~   ** To avoid these errors, select a valid thermal comfort model or eliminate these schedules in the PEOPLE input.\n   ** Warning ** GetElectricEIRChillerInput: Chiller:Electric:EIR=\"COMSTOCK DOE REF 1980-2004 WATERCOOLED  ROTARY SCREW CHILLER 0 90TONS 0.9KW/TON 95TONS 0.7KW/TON\"\n   **   ~~~   ** Energy input ratio as a function of temperature curve output is not equal to 1.0 (+ or - 10%) at reference conditions.\n   **   ~~~   ** Curve output at reference conditions = 1.205\n   ************* Beginning System Sizing Calculations\n   ************* Beginning Plant Sizing Calculations\n   ** Warning ** GetOAControllerInputs: Controller:MechanicalVentilation=\"9 ZONE PVAV WITH PFP BOXES AND REHEAT VENT CONTROLLER\"\n   **   ~~~   ** Cannot locate a matching DesignSpecification:ZoneAirDistribution object for Zone=\"ZONE OFFICE WHOLEBUILDING - LG OFFICE A  - STORY GROUND\".\n   **   ~~~   ** Using default zone air distribution effectiveness of 1.0 for heating and cooling.\n   ** Warning ** GetOAControllerInputs: Controller:MechanicalVentilation=\"9 ZONE PVAV WITH PFP BOXES AND REHEAT VENT CONTROLLER\"\n   **   ~~~   ** Cannot locate a matching DesignSpecification:ZoneAirDistribution object for Zone=\"ZONE OFFICE WHOLEBUILDING - LG OFFICE A END_A - STORY GROUND\".\n   **   ~~~   ** Using default zone air distribution effectiveness of 1.0 for heating and cooling.\n   ** Warning ** GetOAControllerInputs: Controller:MechanicalVentilation=\"9 ZONE PVAV WITH PFP BOXES AND REHEAT VENT CONTROLLER\"\n   **   ~~~   ** Cannot locate a matching DesignSpecification:ZoneAirDistribution object for Zone=\"ZONE OFFICE WHOLEBUILDING - LG OFFICE A END_B - STORY GROUND\".\n   **   ~~~   ** Using default zone air distribution effectiveness of 1.0 for heating and cooling.\n   ** Warning ** GetOAControllerInputs: Controller:MechanicalVentilation=\"9 ZONE PVAV WITH PFP BOXES AND REHEAT VENT CONTROLLER\"\n   **   ~~~   ** Cannot locate a matching DesignSpecification:ZoneAirDistribution object for Zone=\"ZONE OFFICE WHOLEBUILDING - LG OFFICE B  - STORY GROUND\".\n   **   ~~~   ** Using default zone air distribution effectiveness of 1.0 for heating and cooling.\n   ** Warning ** GetOAControllerInputs: Controller:MechanicalVentilation=\"9 ZONE PVAV WITH PFP BOXES AND REHEAT VENT CONTROLLER\"\n   **   ~~~   ** Cannot locate a matching DesignSpecification:ZoneAirDistribution object for Zone=\"ZONE OFFICE WHOLEBUILDING - LG OFFICE B END_A - STORY GROUND\".\n   **   ~~~   ** Using default zone air distribution effectiveness of 1.0 for heating and cooling.\n   ** Warning ** GetOAControllerInputs: Controller:MechanicalVentilation=\"9 ZONE PVAV WITH PFP BOXES AND REHEAT VENT CONTROLLER\"\n   **   ~~~   ** Cannot locate a matching DesignSpecification:ZoneAirDistribution object for Zone=\"ZONE OFFICE WHOLEBUILDING - LG OFFICE B END_B - STORY GROUND\".\n   **   ~~~   ** Using default zone air distribution effectiveness of 1.0 for heating and cooling.\n   ** Warning ** GetOAControllerInputs: Controller:MechanicalVentilation=\"9 ZONE PVAV WITH PFP BOXES AND REHEAT VENT CONTROLLER\"\n   **   ~~~   ** Cannot locate a matching DesignSpecification:ZoneAirDistribution object for Zone=\"ZONE OFFICE WHOLEBUILDING - LG OFFICE C  - STORY GROUND\".\n   **   ~~~   ** Using default zone air distribution effectiveness of 1.0 for heating and cooling.\n   ** Warning ** GetOAControllerInputs: Controller:MechanicalVentilation=\"9 ZONE PVAV WITH PFP BOXES AND REHEAT VENT CONTROLLER\"\n   **   ~~~   ** Cannot locate a matching DesignSpecification:ZoneAirDistribution object for Zone=\"ZONE OFFICE WHOLEBUILDING - LG OFFICE C END_A - STORY GROUND\".\n   **   ~~~   ** Using default zone air distribution effectiveness of 1.0 for heating and cooling.\n   ** Warning ** GetOAControllerInputs: Controller:MechanicalVentilation=\"9 ZONE PVAV WITH PFP BOXES AND REHEAT VENT CONTROLLER\"\n   **   ~~~   ** Cannot locate a matching DesignSpecification:ZoneAirDistribution object for Zone=\"ZONE OFFICE WHOLEBUILDING - LG OFFICE C END_B - STORY GROUND\".\n   **   ~~~   ** Using default zone air distribution effectiveness of 1.0 for heating and cooling.\n   ** Warning ** In calculating the design coil UA for Coil:Cooling:Water 9 ZONE PVAV WITH PFP BOXES AND REHEAT CLG COIL\n   **   ~~~   ** the coil bypass factor is unrealistically large;\n   **   ~~~   ** The initial design conditions are: Tair,in = 28.3958\n   **   ~~~   **                                    Wair,in = 9.307680E-003\n   **   ~~~   **                                    Twater,in = 6.6667\n   **   ~~~   **                                    Tair,out = 10.8909\n   **   ~~~   **                                    Wair,out = 8.500000E-003\n   ** Warning ** Meter:Custom=\"TOTALHVAC:ELECTRICITY\", invalid Output Variable or Meter Name=\"HUMIDIFICATION:ELECTRICITY\".\n   **   ~~~   ** ...will not be shown with the Meter results.\n   ** Warning ** Meter:Custom=\"TOTALHVAC:PROPANE\", invalid Output Variable or Meter Name=\"HEATING:PROPANE\".\n   **   ~~~   ** ...will not be shown with the Meter results.\n   ** Warning ** Meter:Custom=\"TOTALHVAC:PROPANE\", invalid Output Variable or Meter Name=\"COOLING:PROPANE\".\n   **   ~~~   ** ...will not be shown with the Meter results.\n   ** Warning ** Meter:Custom=\"TOTALHVAC:PROPANE\", invalid Output Variable or Meter Name=\"FANS:PROPANE\".\n   **   ~~~   ** ...will not be shown with the Meter results.\n   ** Warning ** Meter:Custom=\"TOTALHVAC:PROPANE\", invalid Output Variable or Meter Name=\"PUMPS:PROPANE\".\n   **   ~~~   ** ...will not be shown with the Meter results.\n   ** Warning ** Meter:Custom=\"TOTALHVAC:PROPANE\", invalid Output Variable or Meter Name=\"HEATREJECTION:PROPANE\".\n   **   ~~~   ** ...will not be shown with the Meter results.\n   ** Warning ** Meter:Custom=\"TOTALHVAC:PROPANE\", invalid Output Variable or Meter Name=\"HUMIDIFICATION:PROPANE\".\n   **   ~~~   ** ...will not be shown with the Meter results.\n   ** Warning ** Meter:Custom=\"TOTALHVAC:PROPANE\", invalid Output Variable or Meter Name=\"HEATRECOVERY:PROPANE\".\n   **   ~~~   ** ...will not be shown with the Meter results.\n   ** Warning ** Meter:Custom=\"TOTALHVAC:PROPANE\", no items assigned \n   **   ~~~   ** ...will not be shown with the Meter results. This may be caused by a Meter:Custom be assigned to another Meter:Custom.\n   ** Warning ** Meter:Custom=\"COOLINGHVAC:PROPANE\", invalid Output Variable or Meter Name=\"COOLING:PROPANE\".\n   **   ~~~   ** ...will not be shown with the Meter results.\n   ** Warning ** Meter:Custom=\"COOLINGHVAC:PROPANE\", invalid Output Variable or Meter Name=\"HEATREJECTION:PROPANE\".\n   **   ~~~   ** ...will not be shown with the Meter results.\n   ** Warning ** Meter:Custom=\"COOLINGHVAC:PROPANE\", no items assigned \n   **   ~~~   ** ...will not be shown with the Meter results. This may be caused by a Meter:Custom be assigned to another Meter:Custom.\n   ** Warning ** Meter:Custom=\"TOTALHVAC:NATURALGAS\", invalid Output Variable or Meter Name=\"HEATING:NATURALGAS\".\n   **   ~~~   ** ...will not be shown with the Meter results.\n   ** Warning ** Meter:Custom=\"TOTALHVAC:NATURALGAS\", invalid Output Variable or Meter Name=\"COOLING:NATURALGAS\".\n   **   ~~~   ** ...will not be shown with the Meter results.\n   ** Warning ** Meter:Custom=\"TOTALHVAC:NATURALGAS\", invalid Output Variable or Meter Name=\"FANS:NATURALGAS\".\n   **   ~~~   ** ...will not be shown with the Meter results.\n   ** Warning ** Meter:Custom=\"TOTALHVAC:NATURALGAS\", invalid Output Variable or Meter Name=\"PUMPS:NATURALGAS\".\n   **   ~~~   ** ...will not be shown with the Meter results.\n   ** Warning ** Meter:Custom=\"TOTALHVAC:NATURALGAS\", invalid Output Variable or Meter Name=\"HEATREJECTION:NATURALGAS\".\n   **   ~~~   ** ...will not be shown with the Meter results.\n   ** Warning ** Meter:Custom=\"TOTALHVAC:NATURALGAS\", invalid Output Variable or Meter Name=\"HUMIDIFICATION:NATURALGAS\".\n   **   ~~~   ** ...will not be shown with the Meter results.\n   ** Warning ** Meter:Custom=\"TOTALHVAC:NATURALGAS\", invalid Output Variable or Meter Name=\"HEATRECOVERY:NATURALGAS\".\n   **   ~~~   ** ...will not be shown with the Meter results.\n   ** Warning ** Meter:Custom=\"TOTALHVAC:NATURALGAS\", no items assigned \n   **   ~~~   ** ...will not be shown with the Meter results. This may be caused by a Meter:Custom be assigned to another Meter:Custom.\n   ** Warning ** Meter:Custom=\"COOLINGHVAC:NATURALGAS\", invalid Output Variable or Meter Name=\"COOLING:NATURALGAS\".\n   **   ~~~   ** ...will not be shown with the Meter results.\n   ** Warning ** Meter:Custom=\"COOLINGHVAC:NATURALGAS\", invalid Output Variable or Meter Name=\"HEATREJECTION:NATURALGAS\".\n   **   ~~~   ** ...will not be shown with the Meter results.\n   ** Warning ** Meter:Custom=\"COOLINGHVAC:NATURALGAS\", no items assigned \n   **   ~~~   ** ...will not be shown with the Meter results. This may be caused by a Meter:Custom be assigned to another Meter:Custom.\n   ** Warning ** Meter:Custom=\"TOTALHVAC:FUELOILNO2\", invalid Output Variable or Meter Name=\"HEATING:FUELOILNO2\".\n   **   ~~~   ** ...will not be shown with the Meter results.\n   ** Warning ** Meter:Custom=\"TOTALHVAC:FUELOILNO2\", invalid Output Variable or Meter Name=\"COOLING:FUELOILNO2\".\n   **   ~~~   ** ...will not be shown with the Meter results.\n   ** Warning ** Meter:Custom=\"TOTALHVAC:FUELOILNO2\", invalid Output Variable or Meter Name=\"FANS:FUELOILNO2\".\n   **   ~~~   ** ...will not be shown with the Meter results.\n   ** Warning ** Meter:Custom=\"TOTALHVAC:FUELOILNO2\", invalid Output Variable or Meter Name=\"PUMPS:FUELOILNO2\".\n   **   ~~~   ** ...will not be shown with the Meter results.\n   ** Warning ** Meter:Custom=\"TOTALHVAC:FUELOILNO2\", invalid Output Variable or Meter Name=\"HEATREJECTION:FUELOILNO2\".\n   **   ~~~   ** ...will not be shown with the Meter results.\n   ** Warning ** Meter:Custom=\"TOTALHVAC:FUELOILNO2\", invalid Output Variable or Meter Name=\"HUMIDIFICATION:FUELOILNO2\".\n   **   ~~~   ** ...will not be shown with the Meter results.\n   ** Warning ** Meter:Custom=\"TOTALHVAC:FUELOILNO2\", invalid Output Variable or Meter Name=\"HEATRECOVERY:FUELOILNO2\".\n   **   ~~~   ** ...will not be shown with the Meter results.\n   ** Warning ** Meter:Custom=\"TOTALHVAC:FUELOILNO2\", no items assigned \n   **   ~~~   ** ...will not be shown with the Meter results. This may be caused by a Meter:Custom be assigned to another Meter:Custom.\n   ** Warning ** Meter:Custom=\"COOLINGHVAC:FUELOILNO2\", invalid Output Variable or Meter Name=\"COOLING:FUELOILNO2\".\n   **   ~~~   ** ...will not be shown with the Meter results.\n   ** Warning ** Meter:Custom=\"COOLINGHVAC:FUELOILNO2\", invalid Output Variable or Meter Name=\"HEATREJECTION:FUELOILNO2\".\n   **   ~~~   ** ...will not be shown with the Meter results.\n   ** Warning ** Meter:Custom=\"COOLINGHVAC:FUELOILNO2\", no items assigned \n   **   ~~~   ** ...will not be shown with the Meter results. This may be caused by a Meter:Custom be assigned to another Meter:Custom.\n   ** Warning ** Output:Meter: invalid Key Name=\"HEATING:NATURALGAS\" - not found.\n   ** Warning ** Output:Meter: invalid Key Name=\"HEATING:DISTRICTCOOLING\" - not found.\n   ** Warning ** Output:Meter: invalid Key Name=\"HEATING:DISTRICTHEATINGWATER\" - not found.\n   ** Warning ** Output:Meter: invalid Key Name=\"HEATING:WATER\" - not found.\n   ** Warning ** Output:Meter: invalid Key Name=\"HEATING:FUELOILNO2\" - not found.\n   ** Warning ** Output:Meter: invalid Key Name=\"HEATING:PROPANE\" - not found.\n   ** Warning ** Output:Meter: invalid Key Name=\"COOLING:NATURALGAS\" - not found.\n   ** Warning ** Output:Meter: invalid Key Name=\"COOLING:DISTRICTCOOLING\" - not found.\n   ** Warning ** Output:Meter: invalid Key Name=\"COOLING:DISTRICTHEATINGWATER\" - not found.\n   ** Warning ** Output:Meter: invalid Key Name=\"COOLING:WATER\" - not found.\n   ** Warning ** Output:Meter: invalid Key Name=\"COOLING:FUELOILNO2\" - not found.\n   ** Warning ** Output:Meter: invalid Key Name=\"COOLING:PROPANE\" - not found.\n   ** Warning ** Output:Meter: invalid Key Name=\"INTERIORLIGHTS:NATURALGAS\" - not found.\n   ** Warning ** Output:Meter: invalid Key Name=\"INTERIORLIGHTS:DISTRICTCOOLING\" - not found.\n   ** Warning ** Output:Meter: invalid Key Name=\"INTERIORLIGHTS:DISTRICTHEATINGWATER\" - not found.\n   ** Warning ** Output:Meter: invalid Key Name=\"INTERIORLIGHTS:WATER\" - not found.\n   ** Warning ** Output:Meter: invalid Key Name=\"INTERIORLIGHTS:FUELOILNO2\" - not found.\n   ** Warning ** Output:Meter: invalid Key Name=\"INTERIORLIGHTS:PROPANE\" - not found.\n   ** Warning ** Output:Meter: invalid Key Name=\"EXTERIORLIGHTS:NATURALGAS\" - not found.\n   ** Warning ** Output:Meter: invalid Key Name=\"EXTERIORLIGHTS:DISTRICTCOOLING\" - not found.\n   ** Warning ** Output:Meter: invalid Key Name=\"EXTERIORLIGHTS:DISTRICTHEATINGWATER\" - not found.\n   ** Warning ** Output:Meter: invalid Key Name=\"EXTERIORLIGHTS:WATER\" - not found.\n   ** Warning ** Output:Meter: invalid Key Name=\"EXTERIORLIGHTS:FUELOILNO2\" - not found.\n   ** Warning ** Output:Meter: invalid Key Name=\"EXTERIORLIGHTS:PROPANE\" - not found.\n   ** Warning ** Output:Meter: invalid Key Name=\"INTERIOREQUIPMENT:NATURALGAS\" - not found.\n   ** Warning ** Output:Meter: invalid Key Name=\"INTERIOREQUIPMENT:DISTRICTCOOLING\" - not found.\n   ** Warning ** Output:Meter: invalid Key Name=\"INTERIOREQUIPMENT:DISTRICTHEATINGWATER\" - not found.\n   ** Warning ** Output:Meter: invalid Key Name=\"INTERIOREQUIPMENT:WATER\" - not found.\n   ** Warning ** Output:Meter: invalid Key Name=\"INTERIOREQUIPMENT:FUELOILNO2\" - not found.\n   ** Warning ** Output:Meter: invalid Key Name=\"INTERIOREQUIPMENT:PROPANE\" - not found.\n   ** Warning ** Output:Meter: invalid Key Name=\"EXTERIOREQUIPMENT:ELECTRICITY\" - not found.\n   ** Warning ** Output:Meter: invalid Key Name=\"EXTERIOREQUIPMENT:NATURALGAS\" - not found.\n   ** Warning ** Output:Meter: invalid Key Name=\"EXTERIOREQUIPMENT:DISTRICTCOOLING\" - not found.\n   ** Warning ** Output:Meter: invalid Key Name=\"EXTERIOREQUIPMENT:DISTRICTHEATINGWATER\" - not found.\n   ** Warning ** Output:Meter: invalid Key Name=\"EXTERIOREQUIPMENT:WATER\" - not found.\n   ** Warning ** Output:Meter: invalid Key Name=\"EXTERIOREQUIPMENT:FUELOILNO2\" - not found.\n   ** Warning ** Output:Meter: invalid Key Name=\"EXTERIOREQUIPMENT:PROPANE\" - not found.\n   ** Warning ** Output:Meter: invalid Key Name=\"FANS:NATURALGAS\" - not found.\n   ** Warning ** Output:Meter: invalid Key Name=\"FANS:DISTRICTCOOLING\" - not found.\n   ** Warning ** Output:Meter: invalid Key Name=\"FANS:DISTRICTHEATINGWATER\" - not found.\n   ** Warning ** Output:Meter: invalid Key Name=\"FANS:WATER\" - not found.\n   ** Warning ** Output:Meter: invalid Key Name=\"FANS:FUELOILNO2\" - not found.\n   ** Warning ** Output:Meter: invalid Key Name=\"FANS:PROPANE\" - not found.\n   ** Warning ** Output:Meter: invalid Key Name=\"PUMPS:NATURALGAS\" - not found.\n   ** Warning ** Output:Meter: invalid Key Name=\"PUMPS:DISTRICTCOOLING\" - not found.\n   ** Warning ** Output:Meter: invalid Key Name=\"PUMPS:DISTRICTHEATINGWATER\" - not found.\n   ** Warning ** Output:Meter: invalid Key Name=\"PUMPS:WATER\" - not found.\n   ** Warning ** Output:Meter: invalid Key Name=\"PUMPS:FUELOILNO2\" - not found.\n   ** Warning ** Output:Meter: invalid Key Name=\"PUMPS:PROPANE\" - not found.\n   ** Warning ** Output:Meter: invalid Key Name=\"HEATREJECTION:NATURALGAS\" - not found.\n   ** Warning ** Output:Meter: invalid Key Name=\"HEATREJECTION:DISTRICTCOOLING\" - not found.\n   ** Warning ** Output:Meter: invalid Key Name=\"HEATREJECTION:DISTRICTHEATINGWATER\" - not found.\n   ** Warning ** Output:Meter: invalid Key Name=\"HEATREJECTION:FUELOILNO2\" - not found.\n   ** Warning ** Output:Meter: invalid Key Name=\"HEATREJECTION:PROPANE\" - not found.\n   ** Warning ** Output:Meter: invalid Key Name=\"HUMIDIFICATION:ELECTRICITY\" - not found.\n   ** Warning ** Output:Meter: invalid Key Name=\"HUMIDIFICATION:NATURALGAS\" - not found.\n   ** Warning ** Output:Meter: invalid Key Name=\"HUMIDIFICATION:DISTRICTCOOLING\" - not found.\n   ** Warning ** Output:Meter: invalid Key Name=\"HUMIDIFICATION:DISTRICTHEATINGWATER\" - not found.\n   ** Warning ** Output:Meter: invalid Key Name=\"HUMIDIFICATION:WATER\" - not found.\n   ** Warning ** Output:Meter: invalid Key Name=\"HUMIDIFICATION:FUELOILNO2\" - not found.\n   ** Warning ** Output:Meter: invalid Key Name=\"HUMIDIFICATION:PROPANE\" - not found.\n   ** Warning ** Output:Meter: invalid Key Name=\"HEATRECOVERY:NATURALGAS\" - not found.\n   ** Warning ** Output:Meter: invalid Key Name=\"HEATRECOVERY:DISTRICTCOOLING\" - not found.\n   ** Warning ** Output:Meter: invalid Key Name=\"HEATRECOVERY:DISTRICTHEATINGWATER\" - not found.\n   ** Warning ** Output:Meter: invalid Key Name=\"HEATRECOVERY:WATER\" - not found.\n   ** Warning ** Output:Meter: invalid Key Name=\"HEATRECOVERY:FUELOILNO2\" - not found.\n   ** Warning ** Output:Meter: invalid Key Name=\"HEATRECOVERY:PROPANE\" - not found.\n   ** Warning ** Output:Meter: invalid Key Name=\"WATERSYSTEMS:NATURALGAS\" - not found.\n   ** Warning ** Output:Meter: invalid Key Name=\"WATERSYSTEMS:DISTRICTCOOLING\" - not found.\n   ** Warning ** Output:Meter: invalid Key Name=\"WATERSYSTEMS:DISTRICTHEATINGWATER\" - not found.\n   ** Warning ** Output:Meter: invalid Key Name=\"WATERSYSTEMS:FUELOILNO2\" - not found.\n   ** Warning ** Output:Meter: invalid Key Name=\"WATERSYSTEMS:PROPANE\" - not found.\n   ** Warning ** Output:Meter: invalid Key Name=\"REFRIGERATION:ELECTRICITY\" - not found.\n   ** Warning ** Output:Meter: invalid Key Name=\"REFRIGERATION:NATURALGAS\" - not found.\n   ** Warning ** Output:Meter: invalid Key Name=\"REFRIGERATION:DISTRICTCOOLING\" - not found.\n   ** Warning ** Output:Meter: invalid Key Name=\"REFRIGERATION:DISTRICTHEATINGWATER\" - not found.\n   ** Warning ** Output:Meter: invalid Key Name=\"REFRIGERATION:WATER\" - not found.\n   ** Warning ** Output:Meter: invalid Key Name=\"REFRIGERATION:FUELOILNO2\" - not found.\n   ** Warning ** Output:Meter: invalid Key Name=\"REFRIGERATION:PROPANE\" - not found.\n   ** Warning ** Output:Meter: invalid Key Name=\"GENERATORS:ELECTRICITY\" - not found.\n   ** Warning ** Output:Meter: invalid Key Name=\"GENERATORS:NATURALGAS\" - not found.\n   ** Warning ** Output:Meter: invalid Key Name=\"GENERATORS:DISTRICTCOOLING\" - not found.\n   ** Warning ** Output:Meter: invalid Key Name=\"GENERATORS:DISTRICTHEATINGWATER\" - not found.\n   ** Warning ** Output:Meter: invalid Key Name=\"GENERATORS:WATER\" - not found.\n   ** Warning ** Output:Meter: invalid Key Name=\"GENERATORS:FUELOILNO2\" - not found.\n   ** Warning ** Output:Meter: invalid Key Name=\"GENERATORS:PROPANE\" - not found.\n   ** Warning ** Output:Meter: invalid Key Name=\"NATURALGAS:FACILITY\" - not found.\n   ** Warning ** Output:Meter: invalid Key Name=\"DISTRICTCOOLING:FACILITY\" - not found.\n   ** Warning ** Output:Meter: invalid Key Name=\"DISTRICTHEATINGWATER:FACILITY\" - not found.\n   ** Warning ** Output:Meter: invalid Key Name=\"FUELOILNO2:FACILITY\" - not found.\n   ** Warning ** Output:Meter: invalid Key Name=\"PROPANE:FACILITY\" - not found.\n   ** Warning ** Output:Meter: invalid Key Name=\"RESPUBLICAREA:INTERIOREQUIPMENT:ELECTRICITY\" - not found.\n   ** Warning ** Output:Meter: invalid Key Name=\"RESPUBLICAREA:INTERIORLIGHTS:ELECTRICITY\" - not found.\n   ** Warning ** Output:Meter: invalid Key Name=\"ELEVATORS:INTERIOREQUIPMENT:ELECTRICITY\" - not found.\n   ** Warning ** Output:Meter: invalid Key Name=\"REFRIGERATION:ELECTRICITY\" - not found.\n   ** Warning ** Output:Meter: invalid Key Name=\"PROPANE:FACILITY\" - not found.\n   ** Warning ** Output:Meter: invalid Key Name=\"HEATING:PROPANE\" - not found.\n   ** Warning ** Output:Meter: invalid Key Name=\"INTERIOREQUIPMENT:PROPANE\" - not found.\n   ** Warning ** Output:Meter: invalid Key Name=\"WATERSYSTEMS:PROPANE\" - not found.\n   ** Warning ** Output:Meter: invalid Key Name=\"TOTALHVAC:PROPANE\" - not found.\n   ** Warning ** Output:Meter: invalid Key Name=\"COOLINGHVAC:PROPANE\" - not found.\n   ** Warning ** Output:Meter: invalid Key Name=\"NATURALGAS:FACILITY\" - not found.\n   ** Warning ** Output:Meter: invalid Key Name=\"HEATING:NATURALGAS\" - not found.\n   ** Warning ** Output:Meter: invalid Key Name=\"INTERIOREQUIPMENT:NATURALGAS\" - not found.\n   ** Warning ** Output:Meter: invalid Key Name=\"WATERSYSTEMS:NATURALGAS\" - not found.\n   ** Warning ** Output:Meter: invalid Key Name=\"TOTALHVAC:NATURALGAS\" - not found.\n   ** Warning ** Output:Meter: invalid Key Name=\"COOLINGHVAC:NATURALGAS\" - not found.\n   ** Warning ** Output:Meter: invalid Key Name=\"FUELOILNO2:FACILITY\" - not found.\n   ** Warning ** Output:Meter: invalid Key Name=\"HEATING:FUELOILNO2\" - not found.\n   ** Warning ** Output:Meter: invalid Key Name=\"INTERIOREQUIPMENT:FUELOILNO2\" - not found.\n   ** Warning ** Output:Meter: invalid Key Name=\"WATERSYSTEMS:FUELOILNO2\" - not found.\n   ** Warning ** Output:Meter: invalid Key Name=\"TOTALHVAC:FUELOILNO2\" - not found.\n   ** Warning ** Output:Meter: invalid Key Name=\"COOLINGHVAC:FUELOILNO2\" - not found.\n   ** Warning ** Output:Meter: invalid Key Name=\"NATURALGAS:FACILITY\" - not found.\n   ** Warning ** Output:Meter: invalid Key Name=\"DISTRICTCOOLING:FACILITY\" - not found.\n   ** Warning ** Output:Meter: invalid Key Name=\"DISTRICTHEATING:FACILITY\" - not found.\n   ** Warning ** Output:Meter:MeterFileOnly: invalid Key Name=\"NATURALGAS:FACILITY\" - not found.\n   ** Warning ** Output:Meter:MeterFileOnly requested for \"Electricity:Facility\" (TimeStep), already on \"Output:Meter\". Will report to both eplusout.eso and eplusout.mtr\n   ************* Testing Individual Branch Integrity\n   ************* All Branches passed integrity testing\n   ************* Testing Individual Supply Air Path Integrity\n   ************* All Supply Air Paths passed integrity testing\n   ************* Testing Individual Return Air Path Integrity\n   ************* All Return Air Paths passed integrity testing\n   ************* No node connection errors were found.\n   ** Warning ** Processing Monthly Tabular Reports: Variable names not valid for this simulation\n   **   ~~~   ** ...use Output:Diagnostics,DisplayExtraWarnings; to show more details on individual variables.\n   ** Warning ** CalcEquipmentFlowRates: \"OFFICE WHOLEBUILDING - LG OFFICE - COMSTOCK DOE REF 1980-2004 SERVICE WATER USE 0.08GPM AT 140F\" - Target water temperature is greater than the hot water temperature by (25.00 C)\n   **   ~~~   **  Environment=FORT WORTH ALLIANCE ANN CLG .4% CONDNS DB=>MWB 1 HVAC Sizing Pass 1, at Simulation time=07/21 06:00 - 06:15\n   **   ~~~   ** ...target water temperature     = 60.00 C\n   **   ~~~   ** ...hot water temperature        = 35.00 C\n   **   ~~~   ** ...Target water temperature should be less than or equal to the hot water temperature. Verify temperature setpoints and schedules.\n   ** Warning ** CoolingTower:VariableSpeed \"PROPELLER OR AXIAL VARIABLE SPEED FAN OPEN COOLING TOWER 38.2 GPM/HP 40.2 GPM/HP\" - Tower range temperature is outside model boundaries at 0.97.\n   **   ~~~   **  ...Valid range = 1.11 to 11.11. Occurrence info = FORT WORTH ALLIANCE ANN CLG 2% CONDNS DP=>MDB 1 HVAC Sizing Pass 1, 07/21 05:00 - 05:08\n   **   ~~~   **  ...Tower range temperature passed to the model = 0.97456\n   **   ~~~   **  ...Range temperatures outside model boundaries may not adversely affect tower performance.\n   **   ~~~   **  ...This is not an unexpected occurrence when simulating actual conditions.\n   ** Warning ** SimHVAC: Maximum iterations (20) exceeded for all HVAC loops, at FORT WORTH ALLIANCE DECEMBER .4% CONDNS WB=>MCDB 1 HVAC Sizing Pass 1, 12/21 03:45 - 04:00\n   **   ~~~   ** The solution for one or more of the Air Loop HVAC systems did not appear to converge\n   **   ~~~   ** ...use Output:Diagnostics,DisplayExtraWarnings; to show more details on each max iteration exceeded.\n   ** Warning ** SimHVAC: Maximum iterations (20) exceeded for all HVAC loops, at FORT WORTH ALLIANCE DECEMBER .4% CONDNS WB=>MCDB 1 HVAC Sizing Pass 1, 12/21 04:00 - 04:15\n   **   ~~~   ** The solution for one or more of the Air Loop HVAC systems did not appear to converge\n   ** Warning ** SimHVAC: Maximum iterations (20) exceeded for all HVAC loops, at FORT WORTH ALLIANCE DECEMBER .4% CONDNS WB=>MCDB 1 HVAC Sizing Pass 1, 12/21 04:15 - 04:30\n   **   ~~~   ** The solution for one or more of the Air Loop HVAC systems did not appear to converge\n   ** Warning ** SimHVAC: Maximum iterations (20) exceeded for all HVAC loops, at FORT WORTH ALLIANCE JANUARY .4% CONDNS WB=>MCDB 1 HVAC Sizing Pass 1, 01/21 02:15 - 02:30\n   **   ~~~   ** The solution for one or more of the Air Loop HVAC systems did not appear to converge\n   ** Warning ** SimHVAC: Maximum iterations (20) exceeded for all HVAC loops, at FORT WORTH ALLIANCE JANUARY .4% CONDNS WB=>MCDB 1 HVAC Sizing Pass 1, 01/21 02:30 - 02:45\n   **   ~~~   ** The solution for one or more of the Air Loop HVAC systems did not appear to converge\n   ** Warning ** SimHVAC: Maximum iterations (20) exceeded for all HVAC loops, at FORT WORTH ALLIANCE JANUARY .4% CONDNS WB=>MCDB 1 HVAC Sizing Pass 1, 01/21 02:45 - 03:00\n   **   ~~~   ** The solution for one or more of the Air Loop HVAC systems did not appear to converge\n   ** Warning ** SimHVAC: Maximum iterations (20) exceeded for all HVAC loops, at FORT WORTH ALLIANCE JANUARY .4% CONDNS WB=>MCDB 1 HVAC Sizing Pass 1, 01/21 03:00 - 03:15\n   **   ~~~   ** The solution for one or more of the Air Loop HVAC systems did not appear to converge\n   ** Warning ** SimHVAC: Maximum iterations (20) exceeded for all HVAC loops, at FORT WORTH ALLIANCE JANUARY .4% CONDNS WB=>MCDB 1 HVAC Sizing Pass 1, 01/21 03:15 - 03:30\n   **   ~~~   ** The solution for one or more of the Air Loop HVAC systems did not appear to converge\n   ** Warning ** SimHVAC: Maximum iterations (20) exceeded for all HVAC loops, at FORT WORTH ALLIANCE JANUARY .4% CONDNS WB=>MCDB 1 HVAC Sizing Pass 1, 01/21 03:30 - 03:45\n   **   ~~~   ** The solution for one or more of the Air Loop HVAC systems did not appear to converge\n   ** Warning ** CoolingTower:VariableSpeed \"PROPELLER OR AXIAL VARIABLE SPEED FAN OPEN COOLING TOWER 38.2 GPM/HP 40.2 GPM/HP\" - Cooling tower air flow rate ratio calculation failed \n   **   ~~~   ** ...with conditions as Twb = 23.16, Trange =  4.66, Tapproach =  3.74, and water flow rate ratio =  0.98\n   **   ~~~   ** ...a solution could not be found within the valid range of air flow rate ratios\n   **   ~~~   **  ...Valid air flow rate ratio range =  0.20 to 1.0.\n   **   ~~~   **  Environment=FORT WORTH ALLIANCE JUNE .4% CONDNS WB=>MCDB 1 HVAC Sizing Pass 1, at Simulation time=06/21 05:30 - 05:45\n   **   ~~~   ** ...Consider modifying the design approach or design range temperature for this tower.\n   ************* Beginning Simulation\n   ** Warning ** CoolingTower:VariableSpeed \"PROPELLER OR AXIAL VARIABLE SPEED FAN OPEN COOLING TOWER 38.2 GPM/HP 40.2 GPM/HP\" - Tower approach temperature is outside model boundaries at 13.80.\n   **   ~~~   **  ...Valid range = 1.11 to 11.11. Occurrence info = RUN PERIOD 1, 01/05 13:00 - 13:15\n   **   ~~~   **  ...Tower approach temperature passed to the model = 13.80136\n   **   ~~~   **  ...Approach temperatures outside model boundaries may not adversely affect tower performance.\n   **   ~~~   **  ...This is not an unexpected occurrence when simulating actual conditions.\n   ** Warning ** Temperature out of range [-100. to 200.] (PsyPsatFnTemp)\n   **   ~~~   **  Routine=PsyTwbFnTdbWPb, Environment=RUN PERIOD 1, at Simulation time=01/23 19:45 - 20:00\n   **   ~~~   **  Input Temperature=-140.11\n   ** Warning ** The resource referenced by LifeCycleCost:UsePriceEscalation= \"U.S. AVG  COMMERCIAL-ELECTRICITY\" has no energy cost. \n   **   ~~~   ** ... It is likely that the wrong resource is used. The resource should match the meter used in Utility:Tariff.\n   ** Warning ** The resource referenced by LifeCycleCost:UsePriceEscalation= \"U.S. AVG  COMMERCIAL-DISTILLATE OIL\" has no energy cost. \n   **   ~~~   ** ... It is likely that the wrong resource is used. The resource should match the meter used in Utility:Tariff.\n   ** Warning ** The resource referenced by LifeCycleCost:UsePriceEscalation= \"U.S. AVG  COMMERCIAL-RESIDUAL OIL\" has no energy cost. \n   **   ~~~   ** ... It is likely that the wrong resource is used. The resource should match the meter used in Utility:Tariff.\n   ** Warning ** The resource referenced by LifeCycleCost:UsePriceEscalation= \"U.S. AVG  COMMERCIAL-NATURAL GAS\" has no energy cost. \n   **   ~~~   ** ... It is likely that the wrong resource is used. The resource should match the meter used in Utility:Tariff.\n   ** Warning ** The resource referenced by LifeCycleCost:UsePriceEscalation= \"U.S. AVG  COMMERCIAL-COAL\" has no energy cost. \n   **   ~~~   ** ... It is likely that the wrong resource is used. The resource should match the meter used in Utility:Tariff.\n   ************* Simulation Error Summary *************\n   ** Warning ** The following Report Variables were requested but not generated -- check.rdd file\n   **   ~~~   ** Either the IDF did not contain these elements, the variable name is misspelled,\n   **   ~~~   ** or the requested variable is an advanced output which requires Output : Diagnostics, DisplayAdvancedReportVariables;\n   ************* Key=*, VarName=BOILER HEATING ENERGY, Frequency=\n   ************* Key=*, VarName=BOILER ELECTRICITY ENERGY, Frequency=\n   ************* Key=*, VarName=BOILER NATURALGAS ENERGY, Frequency=\n   ************* Key=*, VarName=BOILER FUELOILNO2 ENERGY, Frequency=\n   ************* Key=*, VarName=BOILER PROPANE ENERGY, Frequency=\n   ************* Key=*, VarName=HEAT PUMP ELECTRICITY ENERGY, Frequency=\n   ************* Key=*, VarName=HEAT PUMP LOAD SIDE HEAT TRANSFER ENERGY, Frequency=\n   ************* Key=*, VarName=HEAT PUMP SOURCE SIDE INLET TEMPERATURE, Frequency=\n   ************* Key=*, VarName=FLUID HEAT EXCHANGER LOOP SUPPLY SIDE INLET TEMPERATURE, Frequency=\n   ************* Key=*, VarName=FLUID HEAT EXCHANGER LOOP SUPPLY SIDE OUTLET TEMPERATURE, Frequency=\n   ************* Key=*, VarName=FLUID HEAT EXCHANGER LOOP DEMAND SIDE INLET TEMPERATURE, Frequency=\n   ************* Key=*, VarName=FLUID HEAT EXCHANGER LOOP DEMAND SIDE OUTLET TEMPERATURE, Frequency=\n   ************* Key=*, VarName=FLUID HEAT EXCHANGER HEAT TRANSFER ENERGY, Frequency=\n   ************* Key=*, VarName=COOLING COIL ELECTRICITY ENERGY, Frequency=\n   ************* Key=*, VarName=HEATING COIL NATURALGAS ENERGY, Frequency=\n   ************* Key=*, VarName=HEATING COIL DEFROST ELECTRICITY ENERGY, Frequency=\n   ************* Key=*, VarName=ZONE VRF AIR TERMINAL TOTAL HEATING ENERGY, Frequency=\n   ************* Key=*, VarName=ZONE VRF AIR TERMINAL TOTAL COOLING ENERGY, Frequency=\n   ************* Key=*, VarName=VRF HEAT PUMP COOLING ELECTRICITY ENERGY, Frequency=\n   ************* Key=*, VarName=VRF HEAT PUMP HEATING ELECTRICITY ENERGY, Frequency=\n   ************* Key=*, VarName=VRF HEAT PUMP DEFROST ELECTRICITY ENERGY, Frequency=\n   ************* Key=*, VarName=VRF HEAT PUMP CRANKCASE HEATER ELECTRICITY ENERGY, Frequency=\n   ************* Key=*, VarName=VRF HEAT PUMP HEAT RECOVERY ENERGY, Frequency=\n   ************* Key=*, VarName=WATER HEATER NATURALGAS ENERGY, Frequency=\n   ************* Key=*, VarName=WATER HEATER FUELOILNO2 ENERGY, Frequency=\n   ************* Key=*, VarName=WATER HEATER PROPANE ENERGY, Frequency=\n   ************* Key=*, VarName=COOLING COIL TOTAL WATER HEATING ENERGY, Frequency=\n   ************* Key=*, VarName=COOLING COIL WATER HEATING ELECTRICITY ENERGY, Frequency=\n   ************* There are 11 unused schedules in input.\n   ************* There are 16 unused week schedules in input.\n   ************* There are 34 unused day schedules in input.\n   ************* Use Output:Diagnostics,DisplayUnusedSchedules; to see them.\n   *************\n   ************* ===== Recurring Error Summary =====\n   ************* The following recurring error messages occurred.\n   *************\n   *************  ** Warning ** \"OFFICE WHOLEBUILDING - LG OFFICE - COMSTOCK DOE REF 1980-2004 SERVICE WATER USE 0.08GPM AT 140F\" - Target water temperature should be less than or equal to the hot water temperature error continues...\n   *************  **   ~~~   **   This error occurred 1160403 total times;\n   *************  **   ~~~   **   during Warmup 0 times;\n   *************  **   ~~~   **   during Sizing 0 times.\n   *************  **   ~~~   **   Max=24.996872  Min=22.840756\n   *************\n   *************  ** Warning ** CoolingTower:VariableSpeed \"PROPELLER OR AXIAL VARIABLE SPEED FAN OPEN COOLING TOWER 38.2 GPM/HP 40.2 GPM/HP\" - Tower range temperature is out of range error continues...\n   *************  **   ~~~   **   This error occurred 9969 total times;\n   *************  **   ~~~   **   during Warmup 0 times;\n   *************  **   ~~~   **   during Sizing 0 times.\n   *************  **   ~~~   **   Max=1.110999  Min=0.000043\n   *************\n   *************  ** Warning ** CoolingTower:VariableSpeed \"PROPELLER OR AXIAL VARIABLE SPEED FAN OPEN COOLING TOWER 38.2 GPM/HP 40.2 GPM/HP\" - Cooling tower air flow rate ratio calculation failed error continues.\n   *************  **   ~~~   **   This error occurred 8 total times;\n   *************  **   ~~~   **   during Warmup 0 times;\n   *************  **   ~~~   **   during Sizing 0 times.\n   *************\n   *************  ** Warning ** CoolingTower:VariableSpeed \"PROPELLER OR AXIAL VARIABLE SPEED FAN OPEN COOLING TOWER 38.2 GPM/HP 40.2 GPM/HP\" - Tower approach temperature is out of range error continues...\n   *************  **   ~~~   **   This error occurred 2616 total times;\n   *************  **   ~~~   **   during Warmup 0 times;\n   *************  **   ~~~   **   during Sizing 0 times.\n   *************  **   ~~~   **   Max=17.474831  Min=11.111953\n   *************\n   *************  ** Warning ** Temperature out of range [-100. to 200.] (PsyPsatFnTemp)\n   *************  **   ~~~   **   This error occurred 1 total times;\n   *************  **   ~~~   **   during Warmup 0 times;\n   *************  **   ~~~   **   during Sizing 0 times.\n   *************  **   ~~~   **   Max=-140.117683 C  Min=-140.117683 C\n   *************\n   *************\n   ************* ===== Final Error Summary =====\n   ************* The following error categories occurred.  Consider correcting or noting.\n   ************* Nominally Unused Constructions\n   ************* ..The nominally unused constructions warning is provided to alert you to potential conditions that can cause\n   ************* ..extra time during simulation. Each construction is calculated by the algorithm indicated in the HeatBalanceAlgorithm\n   ************* ..object. You may remove the constructions indicated (when you use the DisplayExtraWarnings option).\n   *************\n   ************* EnergyPlus Warmup Error Summary. During Warmup: 0 Warning; 0 Severe Errors.\n   ************* EnergyPlus Sizing Error Summary. During Sizing: 18 Warning; 0 Severe Errors.\n   ************* EnergyPlus Completed Successfully-- 1173197 Warning; 0 Severe Errors; Elapsed Time=00hr 00min 43.51sec\n",
   "file_paths" : 
   [
      "/var/simdata/openstudio/generated_files",
      "./files",
      "./weather",
      "../../files",
      "../../weather",
      "./"
   ],
   "hash" : "355C4029",
   "id" : "bldg0000086up00",
   "measure_paths" : 
   [
      "measures"
   ],
   "run_options" : 
   {
      "debug" : true
   },
   "started_at" : "20240119T210010Z",
   "steps" : 
   [
      {
         "arguments" : 
         {
            "building_id" : 86,
            "number_of_buildings_represented" : 1
         },
         "measure_dir_name" : "BuildExistingModel",
         "result" : 
         {
            "completed_at" : "20240119T210139Z",
            "measure_class_name" : "BuildExistingModel",
            "measure_display_name" : "Build Existing Model",
            "measure_name" : "build_existing_model",
            "measure_taxonomy" : "Whole Building.Space Types",
            "measure_type" : "ModelMeasure",
            "measure_uid" : "943cde68-f4bf-4e2e-a984-ab70cba2669c",
            "measure_version_id" : "714ecd93-87d7-42dc-b9a9-5c34dbdcbfd0",
            "measure_version_modified" : "20231016T202218Z",
            "measure_xml_checksum" : "9339BE01",
            "started_at" : "20240119T210013Z",
            "stderr" : "",
            "stdout" : "[openstudio.measure.OSRunner] <Error> Cannot find current Workflow Step\n[openstudio.measure.OSRunner] <Error> Cannot find current Workflow Step\n[openstudio.measure.OSRunner] <Error> Cannot find current Workflow Step\n[openstudio.measure.OSRunner] <Error> Cannot find current Workflow Step\n[openstudio.measure.OSRunner] <Error> Cannot find current Workflow Step\n[openstudio.measure.OSRunner] <Error> Cannot find current Workflow Step\n[openstudio.measure.OSRunner] <Error> Cannot find current Workflow Step\n[openstudio.measure.OSRunner] <Error> Cannot find current Workflow Step\n[openstudio.measure.OSRunner] <Error> Cannot find current Workflow Step\n[openstudio.measure.OSRunner] <Error> Cannot find current Workflow Step\n[openstudio.measure.OSRunner] <Error> Cannot find current Workflow Step\n[openstudio.measure.OSRunner] <Error> Cannot find current Workflow Step\n[openstudio.measure.OSRunner] <Error> Cannot find current Workflow Step\n[openstudio.measure.OSRunner] <Error> Cannot find current Workflow Step\n[openstudio.measure.OSRunner] <Error> Cannot find current Workflow Step\n[openstudio.measure.OSRunner] <Error> Cannot find current Workflow Step\n[openstudio.measure.OSRunner] <Error> Cannot find current Workflow Step\n[openstudio.measure.OSRunner] <Error> Cannot find current Workflow Step\n[openstudio.measure.OSRunner] <Error> Cannot find current Workflow Step\n[openstudio.measure.OSRunner] <Error> Cannot find current Workflow Step\n[openstudio.measure.OSRunner] <Error> Cannot find current Workflow Step\n[openstudio.measure.OSRunner] <Error> Cannot find current Workflow Step\n[openstudio.measure.OSRunner] <Error> Cannot find current Workflow Step\n[openstudio.measure.OSRunner] <Error> Cannot find current Workflow Step\n[openstudio.measure.OSRunner] <Error> Cannot find current Workflow Step\n[openstudio.measure.OSRunner] <Error> Cannot find current Workflow Step\n",
            "step_errors" : [],
            "step_files" : [],
            "step_final_condition" : "Changed 2092.96 ft2 of window to U-0.75, SHGC-0.65, VLT-0.67",
            "step_info" : 
            [
               "Running in worker container ``",
               "bldg_data: 86,3A,2018,315,Gas,Gas,Gas,Electric,Gas,Gas,G4804390,G480,comply,lead,comply,comply,comply,comply,comply,comply,comply,large_office,West South Central,25001_50000,2000,state,building_owner,building_owner,2018,2000,missing,Electricity,VAV chiller with PFP boxes,7,79,6,66,office_ltg_bpr_almost_off,0.3,0,1,office_plugload_bpr_no_strict_schedule,0.3,0.95,Electricity,mass,4.75,4.25,2017,None,small,2013,2017,2000,2000,2000,2000,largeoffice_nodatacenter,ComStock 90.1-2013,ComStock DOE Ref 1980-2004,11_25pct,20,3,ComStock 90.1-2013,No fault,night_fanon_vent,11.5,12.5,0,0,0,0,0,0,gen2_t8_halogen,ComStock 90.1-2007,ComStock 90.1-2013,ComStock DOE Ref 1980-2004,ComStock DOE Ref 1980-2004,ComStock DOE Ref 1980-2004,ComStock DOE Ref 1980-2004,ComStock 90.1-2019,ComStock DOE Ref 1980-2004,ComStock 90.1-2013,NA,ComStock 90.1-2007,ComStock 90.1-2013,ComStock DOE Ref 1980-2004,ComStock DOE Ref 1980-2004,ComStock DOE Ref 1980-2004,ComStock DOE Ref 1980-2004,Double - No LowE - Clear - Aluminum,hardsize,G4804390123300,G4804390,G48002515,Texas,TX,West South Central,South,West South Central,\"CBSA Dallas-Fort Worth-Arlington, TX\",USA_TX_Fort.Worth.Alliance.722594_2018.epw,Fort Worth Meacham Intl AP,Hot-Humid,3A,ERCOT,63,\"TX, Tarrant County\",\"TX, 02515\",CR09,ERCTc,1.1\n",
               "Assigning option '3A' for parameter 'climate_zone'.",
               "Assigning option 'ERCTc' for parameter 'cambium_grid_region'.",
               "Assigning option 'G4804390' for parameter 'county_id'.",
               "Assigning option '2018' for parameter 'year_of_simulation'.",
               "Assigning option 'large_office' for parameter 'building_type'.",
               "Assigning option 'largeoffice_nodatacenter' for parameter 'building_subtype'.",
               "Assigning option '315' for parameter 'rotation'.",
               "Assigning option 'ComStock DOE Ref 1980-2004' for parameter 'energy_code_followed_during_original_building_construction'.",
               "Assigning option '1' for parameter 'number_stories'.",
               "Assigning option '3' for parameter 'aspect_ratio'.",
               "Assigning option '25001_50000' for parameter 'rentable_area'.",
               "Assigning option 'Electricity' for parameter 'service_water_heating_fuel'.",
               "Assigning option 'VAV chiller with PFP boxes' for parameter 'hvac_system_type'.",
               "Assigning option 'Electricity' for parameter 'heating_fuel'.",
               "Assigning option '4.75' for parameter 'weekday_start_time'.",
               "Assigning option '11.5' for parameter 'weekday_duration'.",
               "Assigning option '4.25' for parameter 'weekend_start_time'.",
               "Assigning option '12.5' for parameter 'weekend_duration'.",
               "Assigning option 'ComStock 90.1-2007' for parameter 'energy_code_followed_during_last_exterior_lighting_replacement'.",
               "Assigning option 'ComStock 90.1-2013' for parameter 'energy_code_followed_during_last_interior_equipment_replacement'.",
               "Assigning option 'ComStock DOE Ref 1980-2004' for parameter 'energy_code_followed_during_last_walls_replacement'.",
               "Assigning option 'ComStock DOE Ref 1980-2004' for parameter 'energy_code_followed_during_last_roof_replacement'.",
               "Assigning option 'ComStock DOE Ref 1980-2004' for parameter 'energy_code_followed_during_last_service_water_heating_replacement'.",
               "Assigning option 'ComStock 90.1-2013' for parameter 'energy_code_followed_during_last_hvac_replacement'.",
               "Assigning option 'gen2_t8_halogen' for parameter 'lighting_generation'.",
               "Assigning option '0.3' for parameter 'ltg_sch_weekday_base_peak_ratio'.",
               "Assigning option '0' for parameter 'ltg_sch_weekend_base_peak_ratio'.",
               "Assigning option '0.3' for parameter 'plugload_sch_weekday_base_peak_ratio'.",
               "Assigning option '0.95' for parameter 'plugload_sch_weekend_base_peak_ratio'.",
               "Assigning option 'mass' for parameter 'wall_construction_type'.",
               "Assigning option '11_25pct' for parameter 'window_wall_ratio'.",
               "Assigning option 'night_fanon_vent' for parameter 'hvac_night_variability'.",
               "Assigning option '20' for parameter 'airtightness'.",
               "Assigning option '7' for parameter 'hvac_tst_clg_delta_f'.",
               "Assigning option '6' for parameter 'hvac_tst_htg_delta_f'.",
               "Assigning option '79' for parameter 'hvac_tst_clg_sp_f'.",
               "Assigning option '66' for parameter 'hvac_tst_htg_sp_f'.",
               "Assigning option 'None' for parameter 'cook_dining_type'.",
               "Assigning option 'Gas' for parameter 'cook_fuel_broiler'.",
               "Assigning option 'Gas' for parameter 'cook_fuel_fryer'.",
               "Assigning option 'Gas' for parameter 'cook_fuel_griddle'.",
               "Assigning option 'Electric' for parameter 'cook_fuel_oven'.",
               "Assigning option 'Gas' for parameter 'cook_fuel_range'.",
               "Assigning option 'Gas' for parameter 'cook_fuel_steamer'.",
               "Assigning option '0' for parameter 'cook_broiler_counts'.",
               "Assigning option '0' for parameter 'cook_fryers_counts'.",
               "Assigning option '0' for parameter 'cook_griddles_counts'.",
               "Assigning option '0' for parameter 'cook_ovens_counts'.",
               "Assigning option '0' for parameter 'cook_ranges_counts'.",
               "Assigning option '0' for parameter 'cook_steamers_counts'.",
               "Assigning option 'Double - No LowE - Clear - Aluminum' for parameter 'baseline_window_type'.",
               "Assigning option 'hardsize' for parameter 'baseline_hvac_sizing'.",
               "Assigning option '1.1' for parameter 'ground_thermal_conductivity'.",
               "Assigning option 'NA' for parameter 'fault_economizer_db_limit'.",
               "Assigning option 'No fault' for parameter 'fault_economizer_damper_fully_closed'.",
               "Assigning option '3A' for parameter 'climate_zone'.",
               "Assigning option 'ERCTc' for parameter 'cambium_grid_region'.",
               "Assigning option 'G4804390' for parameter 'county_id'.",
               "Assigning option '2018' for parameter 'year_of_simulation'.",
               "Assigning option 'large_office' for parameter 'building_type'.",
               "Assigning option 'largeoffice_nodatacenter' for parameter 'building_subtype'.",
               "Assigning option '315' for parameter 'rotation'.",
               "Assigning option 'ComStock DOE Ref 1980-2004' for parameter 'energy_code_followed_during_original_building_construction'.",
               "Assigning option '1' for parameter 'number_stories'.",
               "Assigning option '3' for parameter 'aspect_ratio'.",
               "Assigning option '25001_50000' for parameter 'rentable_area'.",
               "Assigning option 'Electricity' for parameter 'service_water_heating_fuel'.",
               "Assigning option 'VAV chiller with PFP boxes' for parameter 'hvac_system_type'.",
               "Assigning option 'Electricity' for parameter 'heating_fuel'.",
               "Assigning option '4.75' for parameter 'weekday_start_time'.",
               "Assigning option '11.5' for parameter 'weekday_duration'.",
               "Assigning option '4.25' for parameter 'weekend_start_time'.",
               "Assigning option '12.5' for parameter 'weekend_duration'.",
               "Assigning option 'ComStock 90.1-2007' for parameter 'energy_code_followed_during_last_exterior_lighting_replacement'.",
               "Assigning option 'ComStock 90.1-2013' for parameter 'energy_code_followed_during_last_interior_equipment_replacement'.",
               "Assigning option 'ComStock DOE Ref 1980-2004' for parameter 'energy_code_followed_during_last_walls_replacement'.",
               "Assigning option 'ComStock DOE Ref 1980-2004' for parameter 'energy_code_followed_during_last_roof_replacement'.",
               "Assigning option 'ComStock DOE Ref 1980-2004' for parameter 'energy_code_followed_during_last_service_water_heating_replacement'.",
               "Assigning option 'ComStock 90.1-2013' for parameter 'energy_code_followed_during_last_hvac_replacement'.",
               "Assigning option 'gen2_t8_halogen' for parameter 'lighting_generation'.",
               "Assigning option '0.3' for parameter 'ltg_sch_weekday_base_peak_ratio'.",
               "Assigning option '0' for parameter 'ltg_sch_weekend_base_peak_ratio'.",
               "Assigning option '0.3' for parameter 'plugload_sch_weekday_base_peak_ratio'.",
               "Assigning option '0.95' for parameter 'plugload_sch_weekend_base_peak_ratio'.",
               "Assigning option 'mass' for parameter 'wall_construction_type'.",
               "Assigning option '11_25pct' for parameter 'window_wall_ratio'.",
               "Assigning option 'night_fanon_vent' for parameter 'hvac_night_variability'.",
               "Assigning option '20' for parameter 'airtightness'.",
               "Assigning option '7' for parameter 'hvac_tst_clg_delta_f'.",
               "Assigning option '6' for parameter 'hvac_tst_htg_delta_f'.",
               "Assigning option '79' for parameter 'hvac_tst_clg_sp_f'.",
               "Assigning option '66' for parameter 'hvac_tst_htg_sp_f'.",
               "Assigning option 'None' for parameter 'cook_dining_type'.",
               "Assigning option 'Gas' for parameter 'cook_fuel_broiler'.",
               "Assigning option 'Gas' for parameter 'cook_fuel_fryer'.",
               "Assigning option 'Gas' for parameter 'cook_fuel_griddle'.",
               "Assigning option 'Electric' for parameter 'cook_fuel_oven'.",
               "Assigning option 'Gas' for parameter 'cook_fuel_range'.",
               "Assigning option 'Gas' for parameter 'cook_fuel_steamer'.",
               "Assigning option '0' for parameter 'cook_broiler_counts'.",
               "Assigning option '0' for parameter 'cook_fryers_counts'.",
               "Assigning option '0' for parameter 'cook_griddles_counts'.",
               "Assigning option '0' for parameter 'cook_ovens_counts'.",
               "Assigning option '0' for parameter 'cook_ranges_counts'.",
               "Assigning option '0' for parameter 'cook_steamers_counts'.",
               "Assigning option 'Double - No LowE - Clear - Aluminum' for parameter 'baseline_window_type'.",
               "Assigning option 'hardsize' for parameter 'baseline_hvac_sizing'.",
               "Assigning option '1.1' for parameter 'ground_thermal_conductivity'.",
               "Assigning option 'NA' for parameter 'fault_economizer_db_limit'.",
               "Assigning option 'No fault' for parameter 'fault_economizer_damper_fully_closed'.",
               "Calling ChangeBuildingLocation measure with arguments:\nclimate_zone -> ASHRAE 169-2013-3A \ngrid_region -> ERCTc \nweather_file_name -> G4804390.epw \nyear -> 18 \nsoil_conductivity -> 1.1",
               "Set 'ERCTc' as the grid_region in the building additional properties.",
               "city is Fort Worth Alliance. State is TX",
               "mean dry bulb is 19.050833333333333",
               "Adding object Fort Worth Alliance Ann Clg .4% Condns DB=>MWB",
               "Adding object Fort Worth Alliance Ann Clg .4% Condns WB=>MDB",
               "Adding object Fort Worth Alliance Ann Clg 1% Condns DB=>MWB",
               "Adding object Fort Worth Alliance Ann Clg 2% Condns DP=>MDB",
               "Adding object Fort Worth Alliance Ann Htg 99% Condns DB",
               "Adding object Fort Worth Alliance Ann Htg 99.6% Condns DB",
               "Adding object Fort Worth Alliance Ann Htg Wind 99% Condns WS=>MCDB",
               "Adding object Fort Worth Alliance April .4% Condns DB=>MCWB",
               "Adding object Fort Worth Alliance April .4% Condns WB=>MCDB",
               "Adding object Fort Worth Alliance August .4% Condns DB=>MCWB",
               "Adding object Fort Worth Alliance August .4% Condns WB=>MCDB",
               "Adding object Fort Worth Alliance December .4% Condns DB=>MCWB",
               "Adding object Fort Worth Alliance December .4% Condns WB=>MCDB",
               "Adding object Fort Worth Alliance February .4% Condns DB=>MCWB",
               "Adding object Fort Worth Alliance February .4% Condns WB=>MCDB",
               "Adding object Fort Worth Alliance January .4% Condns DB=>MCWB",
               "Adding object Fort Worth Alliance January .4% Condns WB=>MCDB",
               "Adding object Fort Worth Alliance July .4% Condns DB=>MCWB",
               "Adding object Fort Worth Alliance July .4% Condns WB=>MCDB",
               "Adding object Fort Worth Alliance June .4% Condns DB=>MCWB",
               "Adding object Fort Worth Alliance June .4% Condns WB=>MCDB",
               "Adding object Fort Worth Alliance March .4% Condns DB=>MCWB",
               "Adding object Fort Worth Alliance March .4% Condns WB=>MCDB",
               "Adding object Fort Worth Alliance May .4% Condns DB=>MCWB",
               "Adding object Fort Worth Alliance May .4% Condns WB=>MCDB",
               "Adding object Fort Worth Alliance November .4% Condns DB=>MCWB",
               "Adding object Fort Worth Alliance November .4% Condns WB=>MCDB",
               "Adding object Fort Worth Alliance October .4% Condns DB=>MCWB",
               "Adding object Fort Worth Alliance October .4% Condns WB=>MCDB",
               "Adding object Fort Worth Alliance September .4% Condns DB=>MCWB",
               "Adding object Fort Worth Alliance September .4% Condns WB=>MCDB",
               "Setting Climate Zone to ASHRAE 169-2013-3A",
               "Added soil conductivity 1.1 Btu/hr-ft-F and undisturbed ground temperature 17.9 degC as additional properties to the building.",
               "changebuildinglocation runtime: 0.2 seconds",
               "The measure was successful - value.valueName return was `Success`",
               "Calling simulation_settings measure with arguments:\ntimesteps_per_hr -> 4 \nenable_dst -> true \ndst_start -> 2nd Sunday in March \ndst_end -> 1st Sunday in November \nbegin_month -> 1 \nbegin_day -> 1 \nend_month -> 12 \nend_day -> 31 \ncalendar_year -> 2018 \njan_first_day_of_wk -> Monday",
               "Daylight savings enabled from 2nd Sunday in March to 1st Sunday in November.",
               "Timestep set to 4 timesteps/hr.",
               "Run period set from 1/1 to 12/31.",
               "Calendar year set to 2018, start day of week in IDF will be set to Monday for 1/1/2018 during OSM to IDF translation.",
               "simulation_settings runtime: 0.0 seconds",
               "The measure was successful - value.valueName return was `Success`",
               "Calling create_bar_from_building_type_ratios measure with arguments:\nclimate_zone -> ASHRAE 169-2013-3A \nbldg_type_a -> LargeOffice \nbldg_type_a_num_units -> 1 \nbldg_type_b -> LargeOffice \nbldg_subtype_b -> NA \nbldg_type_b_fract_bldg_area -> 0 \nbldg_type_b_num_units -> 1 \nbldg_type_c -> LargeOffice \nbldg_subtype_c -> NA \nbldg_type_c_fract_bldg_area -> 0 \nbldg_type_c_num_units -> 1 \nbldg_type_d -> LargeOffice \nbldg_subtype_d -> NA \nbldg_type_d_fract_bldg_area -> 0 \nbldg_type_d_num_units -> 1 \nnum_stories_below_grade -> 0 \nparty_wall_fraction -> 0 \nstory_multiplier -> None \nbar_division_method -> Multiple Space Types - Individual Stories Sliced \nparty_wall_stories_north -> 0 \nparty_wall_stories_south -> 0 \nparty_wall_stories_east -> 0 \nparty_wall_stories_west -> 0 \nbottom_story_ground_exposed_floor -> true \ntop_story_exterior_exposed_roof -> true \nmake_mid_story_surfaces_adiabatic -> true \nsingle_floor_area -> 0 \nuse_upstream_args -> false \nneighbor_height_north -> 0 \nneighbor_height_south -> 0 \nneighbor_height_east -> 0 \nneighbor_height_west -> 0 \nfloor_height -> 0 \nneighbor_height_method -> Absolute \nbuilding_height_relative_to_neighbors -> 0 \nneighbor_offset_north -> 0 \nneighbor_offset_south -> 0 \nneighbor_offset_east -> 0 \nneighbor_offset_west -> 0 \ncustom_height_bar -> true \nperim_mult -> 0.0 \nbar_width -> 0.0 \nbar_sep_dist_mult -> 10.0 \ndouble_loaded_corridor -> Primary Space Type \nspace_type_sort_logic -> Building Type > Size \nbldg_subtype_a -> largeoffice_nodatacenter \nbuilding_rotation -> 315 \ntemplate -> ComStock DOE Ref 1980-2004 \nnum_stories_above_grade -> 1 \nns_to_ew_ratio -> 3 \ntotal_bldg_floor_area -> 37500 \nwwr -> 0.18",
               "0.0 value for minimum perimeter multiplier will be replaced with smart default for LargeOffice of 1.0.",
               "0.0 value for floor height will be replaced with smart default for LargeOffice of 13.0.",
               "Creating Space Types for LargeOffice.",
               "Making bar with length of 335 ft and width of 112 ft",
               "Intersecting and matching surfaces in story Story Ground, this will create additional geometry.",
               "Created bar envelope with floor area of 37,500 ft^2.",
               "Set Building Rotation to 315.0. Rotation altered after geometry generation is completed, as a result party wall orientation and aspect ratio may not reflect input values.",
               "create_bar_from_building_type_ratios runtime: 0.6 seconds",
               "The measure was successful - value.valueName return was `Success`",
               "Calling create_typical_building_from_model measure with arguments:\nclimate_zone -> ASHRAE 169-2013-3A \ntemplate -> ComStock DOE Ref 1980-2004 \nswh_src -> Electricity \nsystem_type -> VAV chiller with PFP boxes \nhvac_delivery_type -> Inferred \nhtg_src -> Inferred \nclg_src -> Inferred \nkitchen_makeup -> Adjacent \nexterior_lighting_zone -> 3 - All Other Areas \nadd_constructions -> true \nadd_space_type_loads -> true \nadd_elevators -> true \nadd_internal_mass -> true \nadd_exterior_lights -> true \nonsite_parking_fraction -> 1 \nadd_exhaust -> true \nadd_swh -> true \nadd_thermostat -> true \nadd_hvac -> true \nadd_refrigeration -> true \nunmet_hours_tolerance -> 1.0 \nremove_objects -> true \nuse_upstream_args -> false \nmodify_wkdy_op_hrs -> true \nwkdy_op_hrs_start_time -> 4.75 \nwkdy_op_hrs_duration -> 11.5 \nmodify_wknd_op_hrs -> true \nwknd_op_hrs_start_time -> 4.25 \nwknd_op_hrs_duration -> 12.5 \nwall_construction_type -> Mass",
               "Using climate zone ASHRAE 169-2013-3A from user arguments",
               "Adding loads to space type named Office WholeBuilding - Lg Office - ComStock DOE Ref 1980-2004",
               "Using climate zone ASHRAE 169-2013-3A from user arguments",
               "Set FC factor constructions for slab and below grade walls.",
               "Adding default construction set named ComStock DOE Ref 1980-2004 - Office - ASHRAE 169-2013-3A",
               "Exterior wall construction type Mass is the default for this building type.",
               "No elevators added to the building.",
               "Adding Exterior Lights named Parking Areas and Drives Def (W/ft^2) with design level of 0.049749436 * 60,750.",
               "Adding Exterior Lights named Building Facades Def (W/ft^2) with design level of 0.25 * 11,628.",
               "Adding Exterior Lights named Main Entries Def (W/ft) with design level of 30.0 * 30.",
               "Adding Exterior Lights named Other Doors Def (W/ft) with design level of 25.0 * 45.",
               "Adding Office Shared Service Water Loop to the building. It has 1 water use connections.",
               "Assigning Office WholeBuilding - Lg Office - ComStock DOE Ref 1980-2004 Thermostat to thermal zones with Office WholeBuilding - Lg Office - ComStock DOE Ref 1980-2004 assigned.",
               "Updated 8 schedules with new hours of operation.",
               "Using OpenStudio Standards version 0.5.0 with template ComStock DOE Ref 1980-2004.",
               "Loading OpenStudio Standards data for ComStock DOE Ref 1980-2004",
               "Office WholeBuilding - Lg Office had no people, one has been created.",
               "Office WholeBuilding - Lg Office set occupancy to 5.0 people/1000 ft^2.",
               "Office WholeBuilding - Lg Office had no lights, one has been created.",
               "Office WholeBuilding - Lg Office set LPD to 1.575 W/ft^2.",
               "Office WholeBuilding - Lg Office had no electric equipment, one has been created.",
               "Office WholeBuilding - Lg Office set electric EPD to 1.0 W/ft^2.",
               "Office WholeBuilding - Lg Office had no ventilation specification, one has been created.",
               "Office WholeBuilding - Lg Office set ventilation per person to 20.0 cfm/person.",
               "Office WholeBuilding - Lg Office set occupancy schedule to Large Office Bldg Occ.",
               "Office WholeBuilding - Lg Office set occupant activity schedule to Large Office Activity.",
               "Office WholeBuilding - Lg Office set lighting schedule to Office BLDG_LIGHT_EndUseData.",
               "Office WholeBuilding - Lg Office set electric equipment schedule to Office BLDG_EQUIP_EndUseData.",
               "Office WholeBuilding - Lg Office set infiltration schedule to Large Office Infil Quarter On.",
               "Adding construction set: ComStock DOE Ref 1980-2004-ASHRAE 169-2013-3A-Office--is_residentialNo",
               "Adding construction Typical Insulated Exterior Mass Floor.",
               "Adding construction Typical Insulated Exterior Mass Wall R-3.45.",
               "Adding construction Typical IEAD Roof R-13.89.",
               "Adding construction Typical Interior Floor.",
               "Adding construction Typical Interior Wall.",
               "Adding construction Typical Interior Ceiling.",
               "Adding construction Typical Insulated Carpeted 6in Slab Floor.",
               "Adding construction Typical Insulated Basement Mass Wall R-6.99.",
               "Adding construction U 0.72 SHGC 0.25 Simple Glazing Window U-0.72 SHGC 0.25.",
               "Adding construction U 0.72 SHGC 0.25 Simple Glazing Window U-0.72 SHGC 0.25 1.",
               "Adding construction Typical Insulated Metal Door.",
               "Adding construction U 0.88 SHGC 0.16 Sgl Ref-A-L Clr 6mm.",
               "Adding construction Typical Overhead Door.",
               "Adding construction Typical Interior Window.",
               "Adding construction Typical Interior Door.",
               "Adding construction Typical Interior Partition.",
               "For Office WholeBuilding - Lg Office A  - Story Ground, set infiltration rate to 0.202 cfm/ft2 exterior wall area (aka 1.8 cfm/ft2 @75Pa).",
               "For Office WholeBuilding - Lg Office A end_a - Story Ground, set infiltration rate to 0.202 cfm/ft2 exterior wall area (aka 1.8 cfm/ft2 @75Pa).",
               "For Office WholeBuilding - Lg Office A end_b - Story Ground, set infiltration rate to 0.202 cfm/ft2 exterior wall area (aka 1.8 cfm/ft2 @75Pa).",
               "For Office WholeBuilding - Lg Office B  - Story Ground, no exterior wall area was found, no infiltration will be added.",
               "For Office WholeBuilding - Lg Office B end_a - Story Ground, set infiltration rate to 0.202 cfm/ft2 exterior wall area (aka 1.8 cfm/ft2 @75Pa).",
               "For Office WholeBuilding - Lg Office B end_b - Story Ground, set infiltration rate to 0.202 cfm/ft2 exterior wall area (aka 1.8 cfm/ft2 @75Pa).",
               "For Office WholeBuilding - Lg Office C  - Story Ground, set infiltration rate to 0.202 cfm/ft2 exterior wall area (aka 1.8 cfm/ft2 @75Pa).",
               "For Office WholeBuilding - Lg Office C end_a - Story Ground, set infiltration rate to 0.202 cfm/ft2 exterior wall area (aka 1.8 cfm/ft2 @75Pa).",
               "For Office WholeBuilding - Lg Office C end_b - Story Ground, set infiltration rate to 0.202 cfm/ft2 exterior wall area (aka 1.8 cfm/ft2 @75Pa).",
               "The building only has 1 story, no elevators will be added.",
               "For Office WholeBuilding - Lg Office - ComStock DOE Ref 1980-2004, floor area = 37500 ft^2.",
               "For Office WholeBuilding - Lg Office - ComStock DOE Ref 1980-2004, number of spaces = 9.",
               "For Office WholeBuilding - Lg Office - ComStock DOE Ref 1980-2004, number of people = 188.",
               "Added 0.05 W/ft^2 of lighting for 60750.00000000002 ft^2 of parking area.",
               "Added 0.25 W/ft^2 of lighting for 11627.553482998912 ft^2 of building facade area.",
               "Added 30.0 W/ft of lighting for 30.00000000000001 ft of main entry length.",
               "Added 25.0 W/ft of lighting for 45.000000000000014 ft of other doors.",
               "For Office WholeBuilding - Lg Office - ComStock DOE Ref 1980-2004, floor area = 37500 ft^2.",
               "For Office WholeBuilding - Lg Office - ComStock DOE Ref 1980-2004, number of spaces = 9.",
               "For Office WholeBuilding - Lg Office - ComStock DOE Ref 1980-2004, number of people = 188.",
               "Added Office WholeBuilding - Lg Office - ComStock DOE Ref 1980-2004 Service Water Use 0.08gpm at 140F.",
               "Capacity of 2876 Btu/hr = 1.0 peak fraction * 3 gal/hr * 8.4 lb/gal * 1.0 Btu/lb F * (140 - 40 deltaF / 0.8 htg eff).",
               "Capacity of 2876 Btu/hr = 1.0 peak fraction * 3 gal/hr * 8.4 lb/gal * 1.0 Btu/lb F * (140 - 40 deltaF / 0.8 htg eff).",
               "Added water heater called 40gal Electricity Water Heater - 3kBtu/hr",
               "Pipe length 387ft = 2.0 * ( (37500ft2 / 1.0 stories)^0.5 + (10.0ft * (1.0 stories - 1.0) ) )",
               "Added 387ft of Copper pipe 0.75in type L with 0.5in fiberglass batt losing heat to 70F air to Office Shared Service Water Loop.",
               "Added circulating SWH loop called Office Shared Service Water Loop",
               "Adding shared water heating loop for Office.",
               "Started adding daylighting controls.",
               "For Office WholeBuilding - Lg Office B  - Story Ground, daylighting control not applicable because no exterior fenestration is present.",
               "Finished adding daylighting controls.",
               "Finished adding internal mass",
               "Office WholeBuilding - Lg Office - ComStock DOE Ref 1980-2004 set heating setpoint schedule to Large Office HtgSetp.",
               "Office WholeBuilding - Lg Office - ComStock DOE Ref 1980-2004 set cooling setpoint schedule to Large Office ClgSetp.",
               "Final system type group: occ = nonresidential, area = 37500 ft2, num stories = 1, zones:",
               "--- Zone Office WholeBuilding - Lg Office A  - Story Ground, Zone Office WholeBuilding - Lg Office A end_a - Story Ground, Zone Office WholeBuilding - Lg Office A end_b - Story Ground, Zone Office WholeBuilding - Lg Office B  - Story Ground, Zone Office WholeBuilding - Lg Office B end_a - Story Ground",
               "--- Zone Office WholeBuilding - Lg Office B end_b - Story Ground, Zone Office WholeBuilding - Lg Office C  - Story Ground, Zone Office WholeBuilding - Lg Office C end_a - Story Ground, Zone Office WholeBuilding - Lg Office C end_b - Story Ground",
               "Adding condenser water loop.",
               "Using the 90.1-2010 G3.1.3.11 approach temperature sizing methodology for condenser loop Condenser Water Loop.",
               "The maximum design wet bulb temperature from the Summer Design Day WB=>MDB is 78.25999999999992 F",
               "For condenser loop Condenser Water Loop, design OATwb = 78.3 F, approach = 6.7 deltaF, range = 10.0 deltaF, leaving condenser water temperature = 85.0 F.",
               "Adding chilled water loop.",
               "Adding PVAV with PFP Boxes and Reheat system for 9 zones.",
               "Model has design level of 187.50000000000006 people in non residential spaces and 0 people in residential spaces.",
               "Office BLDG_LIGHT_EndUseData does not used the default profile, it will be replaced.",
               "Office BLDG_EQUIP_EndUseData does not used the default profile, it will be replaced.",
               "For Large Office Bldg Occ, applying parametric schedules made a -0.7% change in annual equivalent full load hours. (from 2844.2 to 2863.58)",
               "For Large Office ClgSetp, applying parametric schedules made a 0.3% change in annual equivalent full load hours. (from 220932.0 to 220371.75)",
               "For Large Office HtgSetp, applying parametric schedules made a -0.7% change in annual equivalent full load hours. (from 162576.0 to 163696.5)",
               "For Office BLDG_EQUIP_EndUseData Sun Day profile item 12 time was 11.75 and item 13 time was 12.75. Last buffer is NA. Changing both times to 0.0.",
               "For Office BLDG_EQUIP_EndUseData Sun Day profile item 13 time was 0.0 and item 14 time was 13.75. Last buffer is NA. Changing both times to 0.0.",
               "For Office BLDG_EQUIP_EndUseData Sun Day profile item 14 time was 0.0 and item 15 time was 14.75. Last buffer is NA. Changing both times to 0.0.",
               "For Office BLDG_EQUIP_EndUseData Sun Day profile item 15 time was 0.0 and item 16 time was 15.75. Last buffer is NA. Changing both times to 0.0.",
               "For Office BLDG_EQUIP_EndUseData Sun Day profile item 16 time was 0.0 and item 17 time was 16.75. Last buffer is NA. Changing both times to 0.0.",
               "For Office BLDG_EQUIP_EndUseData Sun Day profile item 17 time was 0.0 and item 18 time was 17.75. Last buffer is NA. Changing both times to 0.0.",
               "For Office BLDG_EQUIP_EndUseData Sun Day profile item 18 time was 0.0 and item 19 time was 18.75. Last buffer is NA. Changing both times to 0.0.",
               "For Office BLDG_EQUIP_EndUseData Sun Day profile item 19 time was 0.0 and item 20 time was 19.75. Last buffer is NA. Changing both times to 0.0.",
               "For Office BLDG_EQUIP_EndUseData Sat Day profile item 1 time was 0.75 and item 2 time was 1.75. Last buffer is NA. Changing both times to 0.0.",
               "For Office BLDG_EQUIP_EndUseData Sat Day profile item 2 time was 0.0 and item 3 time was 2.75. Last buffer is NA. Changing both times to 0.0.",
               "For Office BLDG_EQUIP_EndUseData Sat Day profile item 3 time was 0.0 and item 4 time was 3.75. Last buffer is NA. Changing both times to 0.0.",
               "For Office BLDG_EQUIP_EndUseData Sat Day profile item 19 time was 25.25 and item 20 time was 19.75. Last buffer is 1.0. Changing both times to 24.25.",
               "For Office BLDG_EQUIP_EndUseData Sat Day profile item 20 time was 24.25 and item 21 time was 20.75. Last buffer is 0.0. Changing both times to 24.25.",
               "For Office BLDG_EQUIP_EndUseData Sat Day profile item 21 time was 24.25 and item 22 time was 21.75. Last buffer is 0.0. Changing both times to 24.25.",
               "For Office BLDG_EQUIP_EndUseData Sat Day profile item 22 time was 24.25 and item 23 time was 22.75. Last buffer is 0.0. Changing both times to 24.25.",
               "For Office BLDG_EQUIP_EndUseData Sat Day profile item 23 time was 24.25 and item 24 time was 23.75. Last buffer is NA. Changing both times to 0.0.",
               "For Office BLDG_EQUIP_EndUseData Default profile item 2 time was 1.25 and item 3 time was 2.25. Last buffer is NA. Changing both times to 0.0.",
               "For Office BLDG_EQUIP_EndUseData, applying parametric schedules made a 1.6% change in annual equivalent full load hours. (from 5467.64 to 5379.69)",
               "For Office BLDG_LIGHT_EndUseData Sun Day profile item 12 time was 11.75 and item 13 time was 12.75. Last buffer is NA. Changing both times to 0.0.",
               "For Office BLDG_LIGHT_EndUseData Sun Day profile item 13 time was 0.0 and item 14 time was 13.75. Last buffer is NA. Changing both times to 0.0.",
               "For Office BLDG_LIGHT_EndUseData Sun Day profile item 14 time was 0.0 and item 15 time was 14.75. Last buffer is NA. Changing both times to 0.0.",
               "For Office BLDG_LIGHT_EndUseData Sun Day profile item 15 time was 0.0 and item 16 time was 15.75. Last buffer is NA. Changing both times to 0.0.",
               "For Office BLDG_LIGHT_EndUseData Sun Day profile item 16 time was 0.0 and item 17 time was 16.75. Last buffer is NA. Changing both times to 0.0.",
               "For Office BLDG_LIGHT_EndUseData Sun Day profile item 17 time was 0.0 and item 18 time was 17.75. Last buffer is NA. Changing both times to 0.0.",
               "For Office BLDG_LIGHT_EndUseData Sun Day profile item 18 time was 0.0 and item 19 time was 18.75. Last buffer is NA. Changing both times to 0.0.",
               "For Office BLDG_LIGHT_EndUseData Sun Day profile item 19 time was 0.0 and item 20 time was 19.75. Last buffer is NA. Changing both times to 0.0.",
               "For Office BLDG_LIGHT_EndUseData Sat Day profile item 1 time was 0.75 and item 2 time was 1.75. Last buffer is NA. Changing both times to 0.0.",
               "For Office BLDG_LIGHT_EndUseData Sat Day profile item 2 time was 0.0 and item 3 time was 2.75. Last buffer is NA. Changing both times to 0.0.",
               "For Office BLDG_LIGHT_EndUseData Sat Day profile item 3 time was 0.0 and item 4 time was 3.75. Last buffer is NA. Changing both times to 0.0.",
               "For Office BLDG_LIGHT_EndUseData Sat Day profile item 18 time was 25.25 and item 19 time was 19.75. Last buffer is 1.0. Changing both times to 24.25.",
               "For Office BLDG_LIGHT_EndUseData Sat Day profile item 19 time was 24.25 and item 20 time was 20.75. Last buffer is 0.0. Changing both times to 24.25.",
               "For Office BLDG_LIGHT_EndUseData Sat Day profile item 20 time was 24.25 and item 21 time was 21.75. Last buffer is 0.0. Changing both times to 24.25.",
               "For Office BLDG_LIGHT_EndUseData Sat Day profile item 21 time was 24.25 and item 22 time was 22.75. Last buffer is 0.0. Changing both times to 24.25.",
               "For Office BLDG_LIGHT_EndUseData Sat Day profile item 22 time was 24.25 and item 23 time was 23.75. Last buffer is NA. Changing both times to 0.0.",
               "For Office BLDG_LIGHT_EndUseData Default profile item 2 time was 1.25 and item 3 time was 2.25. Last buffer is NA. Changing both times to 0.0.",
[...]
                  "value" : 6928.9324249444926
               },
               {
                  "name" : "annual_interior_lights_electricity_ghg_emissions_lrmer_low_re_cost_15_2025_start_kg",
                  "value" : 22005.29550095768
               },
               {
                  "name" : "annual_exterior_lights_electricity_ghg_emissions_lrmer_low_re_cost_15_2025_start_kg",
                  "value" : 8043.5145351829733
               },
               {
                  "name" : "annual_interior_equipment_electricity_ghg_emissions_lrmer_low_re_cost_15_2025_start_kg",
                  "value" : 26706.799257315721
               },
               {
                  "name" : "annual_refrigeration_electricity_ghg_emissions_lrmer_low_re_cost_15_2025_start_kg",
                  "value" : 0
               },
               {
                  "name" : "annual_water_systems_electricity_ghg_emissions_lrmer_low_re_cost_15_2025_start_kg",
                  "value" : 1050.6652994140682
               },
               {
                  "name" : "annual_total_hvac_electricity_ghg_emissions_lrmer_low_re_cost_15_2025_start_kg",
                  "value" : 56878.160055753739
               },
               {
                  "name" : "annual_cooling_hvac_electricity_ghg_emissions_lrmer_low_re_cost_15_2025_start_kg",
                  "value" : 35376.806728162424
               },
               {
                  "name" : "annual_electricity_ghg_emissions_lrmer_low_re_cost_25_2025_start_kg",
                  "value" : 107191.64995553221
               },
               {
                  "name" : "annual_heating_electricity_ghg_emissions_lrmer_low_re_cost_25_2025_start_kg",
                  "value" : 6170.2982238386367
               },
               {
                  "name" : "annual_interior_lights_electricity_ghg_emissions_lrmer_low_re_cost_25_2025_start_kg",
                  "value" : 20508.83967216955
               },
               {
                  "name" : "annual_exterior_lights_electricity_ghg_emissions_lrmer_low_re_cost_25_2025_start_kg",
                  "value" : 7270.9163883396795
               },
               {
                  "name" : "annual_interior_equipment_electricity_ghg_emissions_lrmer_low_re_cost_25_2025_start_kg",
                  "value" : 24821.605842586192
               },
               {
                  "name" : "annual_refrigeration_electricity_ghg_emissions_lrmer_low_re_cost_25_2025_start_kg",
                  "value" : 0
               },
               {
                  "name" : "annual_water_systems_electricity_ghg_emissions_lrmer_low_re_cost_25_2025_start_kg",
                  "value" : 977.2014109975396
               },
               {
                  "name" : "annual_total_hvac_electricity_ghg_emissions_lrmer_low_re_cost_25_2025_start_kg",
                  "value" : 53613.086641439215
               },
               {
                  "name" : "annual_cooling_hvac_electricity_ghg_emissions_lrmer_low_re_cost_25_2025_start_kg",
                  "value" : 33775.172190780191
               },
               {
                  "name" : "annual_electricity_ghg_emissions_lrmer_mid_case_15_kg",
                  "value" : 57276.837021510961
               },
               {
                  "name" : "annual_heating_electricity_ghg_emissions_lrmer_mid_case_15_kg",
                  "value" : 2820.3985201541145
               },
               {
                  "name" : "annual_interior_lights_electricity_ghg_emissions_lrmer_mid_case_15_kg",
                  "value" : 10415.15115298865
               },
               {
                  "name" : "annual_exterior_lights_electricity_ghg_emissions_lrmer_mid_case_15_kg",
                  "value" : 4076.6144190575715
               },
               {
                  "name" : "annual_interior_equipment_electricity_ghg_emissions_lrmer_mid_case_15_kg",
                  "value" : 12908.184775182324
               },
               {
                  "name" : "annual_refrigeration_electricity_ghg_emissions_lrmer_mid_case_15_kg",
                  "value" : 0
               },
               {
                  "name" : "annual_water_systems_electricity_ghg_emissions_lrmer_mid_case_15_kg",
                  "value" : 507.5105638847669
               },
               {
                  "name" : "annual_total_hvac_electricity_ghg_emissions_lrmer_mid_case_15_kg",
                  "value" : 29369.37611039761
               },
               {
                  "name" : "annual_cooling_hvac_electricity_ghg_emissions_lrmer_mid_case_15_kg",
                  "value" : 19103.366128626913
               },
               {
                  "name" : "annual_electricity_ghg_emissions_lrmer_mid_case_30_kg",
                  "value" : 48495.502080388302
               },
               {
                  "name" : "annual_heating_electricity_ghg_emissions_lrmer_mid_case_30_kg",
                  "value" : 2321.3752314494955
               },
               {
                  "name" : "annual_interior_lights_electricity_ghg_emissions_lrmer_mid_case_30_kg",
                  "value" : 8657.3912965151194
               },
               {
                  "name" : "annual_exterior_lights_electricity_ghg_emissions_lrmer_mid_case_30_kg",
                  "value" : 3438.71774706726
               },
               {
                  "name" : "annual_interior_equipment_electricity_ghg_emissions_lrmer_mid_case_30_kg",
                  "value" : 10822.321303540275
               },
               {
                  "name" : "annual_refrigeration_electricity_ghg_emissions_lrmer_mid_case_30_kg",
                  "value" : 0
               },
               {
                  "name" : "annual_water_systems_electricity_ghg_emissions_lrmer_mid_case_30_kg",
                  "value" : 426.28384950112314
               },
               {
                  "name" : "annual_total_hvac_electricity_ghg_emissions_lrmer_mid_case_30_kg",
                  "value" : 25150.787883764347
               },
               {
                  "name" : "annual_cooling_hvac_electricity_ghg_emissions_lrmer_mid_case_30_kg",
                  "value" : 16510.171858306519
               },
               {
                  "name" : "annual_electricity_ghg_emissions_lrmer_mid_case_15_2025_start_kg",
                  "value" : 156101.00585726177
               },
               {
                  "name" : "annual_heating_electricity_ghg_emissions_lrmer_mid_case_15_2025_start_kg",
                  "value" : 8688.2147636084846
               },
               {
                  "name" : "annual_interior_lights_electricity_ghg_emissions_lrmer_mid_case_15_2025_start_kg",
                  "value" : 30324.126319584157
               },
               {
                  "name" : "annual_exterior_lights_electricity_ghg_emissions_lrmer_mid_case_15_2025_start_kg",
                  "value" : 10592.86632522824
               },
               {
                  "name" : "annual_interior_equipment_electricity_ghg_emissions_lrmer_mid_case_15_2025_start_kg",
                  "value" : 36778.000406030973
               },
               {
                  "name" : "annual_refrigeration_electricity_ghg_emissions_lrmer_mid_case_15_2025_start_kg",
                  "value" : 0
               },
               {
                  "name" : "annual_water_systems_electricity_ghg_emissions_lrmer_mid_case_15_2025_start_kg",
                  "value" : 1462.1141500185338
               },
               {
                  "name" : "annual_total_hvac_electricity_ghg_emissions_lrmer_mid_case_15_2025_start_kg",
                  "value" : 76943.898656399528
               },
               {
                  "name" : "annual_cooling_hvac_electricity_ghg_emissions_lrmer_mid_case_15_2025_start_kg",
                  "value" : 48125.307975394273
               },
               {
                  "name" : "annual_electricity_ghg_emissions_lrmer_mid_case_25_2025_start_kg",
                  "value" : 151928.42188428779
               },
               {
                  "name" : "annual_heating_electricity_ghg_emissions_lrmer_mid_case_25_2025_start_kg",
                  "value" : 8161.2987670734228
               },
               {
                  "name" : "annual_interior_lights_electricity_ghg_emissions_lrmer_mid_case_25_2025_start_kg",
                  "value" : 29450.961881205076
               },
               {
                  "name" : "annual_exterior_lights_electricity_ghg_emissions_lrmer_mid_case_25_2025_start_kg",
                  "value" : 10111.084954871147
               },
               {
                  "name" : "annual_interior_equipment_electricity_ghg_emissions_lrmer_mid_case_25_2025_start_kg",
                  "value" : 35638.026838205587
               },
               {
                  "name" : "annual_refrigeration_electricity_ghg_emissions_lrmer_mid_case_25_2025_start_kg",
                  "value" : 0
               },
               {
                  "name" : "annual_water_systems_electricity_ghg_emissions_lrmer_mid_case_25_2025_start_kg",
                  "value" : 1415.8030870046719
               },
               {
                  "name" : "annual_total_hvac_electricity_ghg_emissions_lrmer_mid_case_25_2025_start_kg",
                  "value" : 75312.545123001546
               },
               {
                  "name" : "annual_cooling_hvac_electricity_ghg_emissions_lrmer_mid_case_25_2025_start_kg",
                  "value" : 47531.731101864847
               }
            ],
            "step_warnings" : 
            [
               "Unable to get hourly timeseries Refrigeration electricity use from the model. Cannot calculate results",
               "Unable to get hourly timeseries facility natural gas use from the model, the model may not use gas.  Cannot calculate emissions.",
               "Unable to get hourly timeseries facility fuel oil use from the model, the model may not use fuel oil.  Cannot calculate emissions.",
               "Unable to get hourly timeseries facility propane use from the model, the model may not use propane.  Cannot calculate emissions.",
               "Unable to find annual Heating natural gas use from the model, the model may not use gas for this end-use. Cannot calculate end-use emissions for this fuel.",
               "Unable to find annual Heating propane from the model, the model may not use propane for this end-use. Cannot calculate end-use emissions for this fuel.",
               "Unable to find annual Heating fuel oil from the model, the model may not use propane for this end-use. Cannot calculate end-use emissions for this fuel.",
               "Unable to find annual InteriorEquipment natural gas use from the model, the model may not use gas for this end-use. Cannot calculate end-use emissions for this fuel.",
               "Unable to find annual InteriorEquipment propane from the model, the model may not use propane for this end-use. Cannot calculate end-use emissions for this fuel.",
               "Unable to find annual InteriorEquipment fuel oil from the model, the model may not use propane for this end-use. Cannot calculate end-use emissions for this fuel.",
               "Unable to find annual WaterSystems natural gas use from the model, the model may not use gas for this end-use. Cannot calculate end-use emissions for this fuel.",
               "Unable to find annual WaterSystems propane from the model, the model may not use propane for this end-use. Cannot calculate end-use emissions for this fuel.",
               "Unable to find annual WaterSystems fuel oil from the model, the model may not use propane for this end-use. Cannot calculate end-use emissions for this fuel.",
               "Unable to find annual TotalHVAC natural gas use from the model, the model may not use gas for this end-use. Cannot calculate end-use emissions for this fuel.",
               "Unable to find annual TotalHVAC propane from the model, the model may not use propane for this end-use. Cannot calculate end-use emissions for this fuel.",
               "Unable to find annual TotalHVAC fuel oil from the model, the model may not use propane for this end-use. Cannot calculate end-use emissions for this fuel."
            ]
         }
      },
      {
         "arguments" : {},
         "measure_dir_name" : "run_directory_cleanup",
         "result" : 
         {
            "completed_at" : "20240119T210301Z",
            "measure_class_name" : "RunDirectoryCleanup",
            "measure_display_name" : "Run Directory Cleanup",
            "measure_name" : "run_directory_cleanup",
            "measure_taxonomy" : "Calibration",
            "measure_type" : "ReportingMeasure",
            "measure_uid" : "3146d7e2-a2cc-4611-a8e1-cccd16e7143e",
            "measure_version_id" : "eb4b3690-3714-4b6a-830d-aec68898a4f9",
            "measure_version_modified" : "20231017T112849Z",
            "measure_xml_checksum" : "5F1EDF75",
            "started_at" : "20240119T210300Z",
            "stderr" : "",
            "stdout" : "",
            "step_errors" : [],
            "step_files" : [],
            "step_info" : 
            [
               "Deleted file ./../in.epw from the run directory.",
               "Deleted file ./../eplusout.sql from the run directory.",
               "Deleted file ./../eplusout.audit from the run directory.",
               "Deleted file ./../readvars.audit from the run directory.",
               "Deleted file ./../eplusout.bnd from the run directory.",
               "Deleted file ./../eplusout.eio from the run directory.",
               "Deleted file ./../eplusout.shd from the run directory.",
               "Deleted file ./../eplusout.mdd from the run directory.",
               "Deleted file ./../eplusout.eso from the run directory.",
               "Deleted file ./../ip.eso from the run directory.",
               "Deleted file ./../pre-preprocess.idf from the run directory.",
               "Deleted file ./../eplusout.end from the run directory.",
               "Deleted file ./../eplusout.mtd from the run directory.",
               "Deleted file ./../eplusssz.csv from the run directory.",
               "Deleted file ./../eplusout.mtr from the run directory.",
               "Deleted file ./../ip.mtr from the run directory.",
               "Deleted file ./../var_request.rvi from the run directory.",
               "Deleted file ./../convert.txt from the run directory.",
               "Deleted file ./../convertESOMTR from the run directory.",
               "Deleted file ./../ReadVarsESO from the run directory.",
               "Deleted file ./../000_BuildExistingModel/create_typical_building_from_model_SR1/in.epw from the run directory.",
               "Deleted file ./../000_BuildExistingModel/set_hvac_template_SR/in.epw from the run directory.",
               "Deleted file ./../000_BuildExistingModel/hardsize_model_SR/in.epw from the run directory.",
               "Deleted file ./../000_BuildExistingModel/create_typical_building_from_model_SR1/run/eplusout.sql from the run directory.",
               "Deleted file ./../000_BuildExistingModel/set_hvac_template_SR/run/eplusout.sql from the run directory.",
               "Deleted file ./../000_BuildExistingModel/hardsize_model_SR/run/eplusout.sql from the run directory.",
               "Deleted file ./../000_BuildExistingModel/create_typical_building_from_model_SR1/run/eplusout.audit from the run directory.",
               "Deleted file ./../000_BuildExistingModel/set_hvac_template_SR/run/eplusout.audit from the run directory.",
               "Deleted file ./../000_BuildExistingModel/hardsize_model_SR/run/eplusout.audit from the run directory.",
               "Deleted file ./../000_BuildExistingModel/create_typical_building_from_model_SR1/run/eplusout.bnd from the run directory.",
               "Deleted file ./../000_BuildExistingModel/set_hvac_template_SR/run/eplusout.bnd from the run directory.",
               "Deleted file ./../000_BuildExistingModel/hardsize_model_SR/run/eplusout.bnd from the run directory.",
               "Deleted file ./../000_BuildExistingModel/create_typical_building_from_model_SR1/run/eplusout.eio from the run directory.",
               "Deleted file ./../000_BuildExistingModel/set_hvac_template_SR/run/eplusout.eio from the run directory.",
               "Deleted file ./../000_BuildExistingModel/hardsize_model_SR/run/eplusout.eio from the run directory.",
               "Deleted file ./../000_BuildExistingModel/create_typical_building_from_model_SR1/run/eplusout.shd from the run directory.",
               "Deleted file ./../000_BuildExistingModel/set_hvac_template_SR/run/eplusout.shd from the run directory.",
               "Deleted file ./../000_BuildExistingModel/hardsize_model_SR/run/eplusout.shd from the run directory.",
               "Deleted file ./../000_BuildExistingModel/create_typical_building_from_model_SR1/run/eplusout.mdd from the run directory.",
               "Deleted file ./../000_BuildExistingModel/set_hvac_template_SR/run/eplusout.mdd from the run directory.",
               "Deleted file ./../000_BuildExistingModel/hardsize_model_SR/run/eplusout.mdd from the run directory.",
               "Deleted file ./../000_BuildExistingModel/create_typical_building_from_model_SR1/run/eplusout.eso from the run directory.",
               "Deleted file ./../000_BuildExistingModel/set_hvac_template_SR/run/eplusout.eso from the run directory.",
               "Deleted file ./../000_BuildExistingModel/hardsize_model_SR/run/eplusout.eso from the run directory.",
               "Deleted file ./../000_BuildExistingModel/create_typical_building_from_model_SR1/run/pre-preprocess.idf from the run directory.",
               "Deleted file ./../000_BuildExistingModel/set_hvac_template_SR/run/pre-preprocess.idf from the run directory.",
               "Deleted file ./../000_BuildExistingModel/hardsize_model_SR/run/pre-preprocess.idf from the run directory.",
               "Deleted file ./../000_BuildExistingModel/create_typical_building_from_model_SR1/run/eplusout.end from the run directory.",
               "Deleted file ./../000_BuildExistingModel/set_hvac_template_SR/run/eplusout.end from the run directory.",
               "Deleted file ./../000_BuildExistingModel/hardsize_model_SR/run/eplusout.end from the run directory.",
               "Deleted file ./../000_BuildExistingModel/create_typical_building_from_model_SR1/run/eplusout.mtd from the run directory.",
               "Deleted file ./../000_BuildExistingModel/set_hvac_template_SR/run/eplusout.mtd from the run directory.",
               "Deleted file ./../000_BuildExistingModel/hardsize_model_SR/run/eplusout.mtd from the run directory.",
               "Deleted file ./../000_BuildExistingModel/create_typical_building_from_model_SR1/run/eplusssz.csv from the run directory.",
               "Deleted file ./../000_BuildExistingModel/set_hvac_template_SR/run/eplusssz.csv from the run directory.",
               "Deleted file ./../000_BuildExistingModel/hardsize_model_SR/run/eplusssz.csv from the run directory.",
               "Deleted file ./../000_BuildExistingModel/create_typical_building_from_model_SR1/run/data_point.zip from the run directory.",
               "Deleted file ./../000_BuildExistingModel/set_hvac_template_SR/run/data_point.zip from the run directory.",
               "Deleted file ./../000_BuildExistingModel/hardsize_model_SR/run/data_point.zip from the run directory."
            ],
            "step_result" : "Success",
            "step_values" : [],
            "step_warnings" : []
         }
      }
   ],
   "updated_at" : "20240119T210301Z",
   "weather_file" : "weather/empty.epw"
}