Program Version,EnergyPlus, Version 23.2.0-7636e6b3e9, YMD=2024.01.24 11:24
! This file shows details about the branches, nodes, and other
! elements of the flow connections.
! This file is intended for use in "debugging" potential problems
! that may also be detected by the program, but may be more easily
! identified by "eye".
! This file is also intended to support software which draws a
! schematic diagram of the HVAC system.
! ===============================================================
! #Nodes,<Number of Unique Nodes>
 #Nodes,1100
! <Node>,<NodeNumber>,<Node Name>,<Node Fluid Type>,<# Times Node Referenced After Definition>
 Node,1,ZONE OFFICE OFFICELARGE DATA CENTER A  - STORY GROUND VAV TERMINAL OUTLET AIR NODE,Air,4
 Node,2,ZONE OFFICE OFFICELARGE DATA CENTER A  - STORY GROUND RETURN AIR NODE,Air,2
 Node,3,ZONE OFFICE OFFICELARGE DATA CENTER B  - STORY GROUND VAV TERMINAL OUTLET AIR NODE,Air,4
 Node,4,ZONE OFFICE OFFICELARGE DATA CENTER B  - STORY GROUND RETURN AIR NODE,Air,2
 Node,5,ZONE OFFICE OFFICELARGE DATA CENTER C  - STORY GROUND VAV TERMINAL OUTLET AIR NODE,Air,4
 Node,6,ZONE OFFICE OFFICELARGE DATA CENTER C  - STORY GROUND RETURN AIR NODE,Air,2
 Node,7,ZONE OFFICE OFFICELARGE MAIN DATA CENTER A  - STORY GROUND VAV TERMINAL OUTLET AIR NODE,Air,4
 Node,8,ZONE OFFICE OFFICELARGE MAIN DATA CENTER A  - STORY GROUND RETURN AIR NODE,Air,2
 Node,9,ZONE OFFICE OFFICELARGE MAIN DATA CENTER A END_B - STORY GROUND VAV TERMINAL OUTLET AIR NODE,Air,4
 Node,10,ZONE OFFICE OFFICELARGE MAIN DATA CENTER A END_B - STORY GROUND RETURN AIR NODE,Air,2
 Node,11,ZONE OFFICE OFFICELARGE MAIN DATA CENTER B  - STORY GROUND VAV TERMINAL OUTLET AIR NODE,Air,4
 Node,12,ZONE OFFICE OFFICELARGE MAIN DATA CENTER B  - STORY GROUND RETURN AIR NODE,Air,2
 Node,13,ZONE OFFICE OFFICELARGE MAIN DATA CENTER B END_B - STORY GROUND VAV TERMINAL OUTLET AIR NODE,Air,4
 Node,14,ZONE OFFICE OFFICELARGE MAIN DATA CENTER B END_B - STORY GROUND RETURN AIR NODE,Air,2
 Node,15,ZONE OFFICE OFFICELARGE MAIN DATA CENTER C  - STORY GROUND VAV TERMINAL OUTLET AIR NODE,Air,4
 Node,16,ZONE OFFICE OFFICELARGE MAIN DATA CENTER C  - STORY GROUND RETURN AIR NODE,Air,2
 Node,17,ZONE OFFICE OFFICELARGE MAIN DATA CENTER C END_B - STORY GROUND VAV TERMINAL OUTLET AIR NODE,Air,4
 Node,18,ZONE OFFICE OFFICELARGE MAIN DATA CENTER C END_B - STORY GROUND RETURN AIR NODE,Air,2
 Node,19,ZONE OFFICE WHOLEBUILDING - LG OFFICE A  - STORY GROUND VAV TERMINAL OUTLET AIR NODE,Air,4
 Node,20,ZONE OFFICE WHOLEBUILDING - LG OFFICE A  - STORY GROUND RETURN AIR NODE,Air,2
 Node,21,ZONE OFFICE WHOLEBUILDING - LG OFFICE A  - STORY MID VAV TERMINAL OUTLET AIR NODE,Air,4
 Node,22,ZONE OFFICE WHOLEBUILDING - LG OFFICE A  - STORY MID RETURN AIR NODE,Air,2
 Node,23,ZONE OFFICE WHOLEBUILDING - LG OFFICE A  - STORY MID10 VAV TERMINAL OUTLET AIR NODE,Air,4
 Node,24,ZONE OFFICE WHOLEBUILDING - LG OFFICE A  - STORY MID10 RETURN AIR NODE,Air,2
 Node,25,ZONE OFFICE WHOLEBUILDING - LG OFFICE A  - STORY MID11 VAV TERMINAL OUTLET AIR NODE,Air,4
 Node,26,ZONE OFFICE WHOLEBUILDING - LG OFFICE A  - STORY MID11 RETURN AIR NODE,Air,2
 Node,27,ZONE OFFICE WHOLEBUILDING - LG OFFICE A  - STORY MID2 VAV TERMINAL OUTLET AIR NODE,Air,4
 Node,28,ZONE OFFICE WHOLEBUILDING - LG OFFICE A  - STORY MID2 RETURN AIR NODE,Air,2
 Node,29,ZONE OFFICE WHOLEBUILDING - LG OFFICE A  - STORY MID3 VAV TERMINAL OUTLET AIR NODE,Air,4
 Node,30,ZONE OFFICE WHOLEBUILDING - LG OFFICE A  - STORY MID3 RETURN AIR NODE,Air,2
 Node,31,ZONE OFFICE WHOLEBUILDING - LG OFFICE A  - STORY MID4 VAV TERMINAL OUTLET AIR NODE,Air,4
 Node,32,ZONE OFFICE WHOLEBUILDING - LG OFFICE A  - STORY MID4 RETURN AIR NODE,Air,2
 Node,33,ZONE OFFICE WHOLEBUILDING - LG OFFICE A  - STORY MID5 VAV TERMINAL OUTLET AIR NODE,Air,4
 Node,34,ZONE OFFICE WHOLEBUILDING - LG OFFICE A  - STORY MID5 RETURN AIR NODE,Air,2
 Node,35,ZONE OFFICE WHOLEBUILDING - LG OFFICE A  - STORY MID6 VAV TERMINAL OUTLET AIR NODE,Air,4
 Node,36,ZONE OFFICE WHOLEBUILDING - LG OFFICE A  - STORY MID6 RETURN AIR NODE,Air,2
 Node,37,ZONE OFFICE WHOLEBUILDING - LG OFFICE A  - STORY MID7 VAV TERMINAL OUTLET AIR NODE,Air,4
 Node,38,ZONE OFFICE WHOLEBUILDING - LG OFFICE A  - STORY MID7 RETURN AIR NODE,Air,2
 Node,39,ZONE OFFICE WHOLEBUILDING - LG OFFICE A  - STORY MID8 VAV TERMINAL OUTLET AIR NODE,Air,4
 Node,40,ZONE OFFICE WHOLEBUILDING - LG OFFICE A  - STORY MID8 RETURN AIR NODE,Air,2
 Node,41,ZONE OFFICE WHOLEBUILDING - LG OFFICE A  - STORY MID9 VAV TERMINAL OUTLET AIR NODE,Air,4
 Node,42,ZONE OFFICE WHOLEBUILDING - LG OFFICE A  - STORY MID9 RETURN AIR NODE,Air,2
 Node,43,ZONE OFFICE WHOLEBUILDING - LG OFFICE A  - STORY TOP VAV TERMINAL OUTLET AIR NODE,Air,4
 Node,44,ZONE OFFICE WHOLEBUILDING - LG OFFICE A  - STORY TOP RETURN AIR NODE,Air,2
 Node,45,ZONE OFFICE WHOLEBUILDING - LG OFFICE A END_A - STORY GROUND VAV TERMINAL OUTLET AIR NODE,Air,4
 Node,46,ZONE OFFICE WHOLEBUILDING - LG OFFICE A END_A - STORY GROUND RETURN AIR NODE,Air,2
 Node,47,ZONE OFFICE WHOLEBUILDING - LG OFFICE A END_A - STORY MID VAV TERMINAL OUTLET AIR NODE,Air,4
 Node,48,ZONE OFFICE WHOLEBUILDING - LG OFFICE A END_A - STORY MID RETURN AIR NODE,Air,2
 Node,49,ZONE OFFICE WHOLEBUILDING - LG OFFICE A END_A - STORY MID10 VAV TERMINAL OUTLET AIR NODE,Air,4
 Node,50,ZONE OFFICE WHOLEBUILDING - LG OFFICE A END_A - STORY MID10 RETURN AIR NODE,Air,2
 Node,51,ZONE OFFICE WHOLEBUILDING - LG OFFICE A END_A - STORY MID11 VAV TERMINAL OUTLET AIR NODE,Air,4
 Node,52,ZONE OFFICE WHOLEBUILDING - LG OFFICE A END_A - STORY MID11 RETURN AIR NODE,Air,2
 Node,53,ZONE OFFICE WHOLEBUILDING - LG OFFICE A END_A - STORY MID2 VAV TERMINAL OUTLET AIR NODE,Air,4
 Node,54,ZONE OFFICE WHOLEBUILDING - LG OFFICE A END_A - STORY MID2 RETURN AIR NODE,Air,2
 Node,55,ZONE OFFICE WHOLEBUILDING - LG OFFICE A END_A - STORY MID3 VAV TERMINAL OUTLET AIR NODE,Air,4
 Node,56,ZONE OFFICE WHOLEBUILDING - LG OFFICE A END_A - STORY MID3 RETURN AIR NODE,Air,2
 Node,57,ZONE OFFICE WHOLEBUILDING - LG OFFICE A END_A - STORY MID4 VAV TERMINAL OUTLET AIR NODE,Air,4
 Node,58,ZONE OFFICE WHOLEBUILDING - LG OFFICE A END_A - STORY MID4 RETURN AIR NODE,Air,2
 Node,59,ZONE OFFICE WHOLEBUILDING - LG OFFICE A END_A - STORY MID5 VAV TERMINAL OUTLET AIR NODE,Air,4
 Node,60,ZONE OFFICE WHOLEBUILDING - LG OFFICE A END_A - STORY MID5 RETURN AIR NODE,Air,2
 Node,61,ZONE OFFICE WHOLEBUILDING - LG OFFICE A END_A - STORY MID6 VAV TERMINAL OUTLET AIR NODE,Air,4
 Node,62,ZONE OFFICE WHOLEBUILDING - LG OFFICE A END_A - STORY MID6 RETURN AIR NODE,Air,2
 Node,63,ZONE OFFICE WHOLEBUILDING - LG OFFICE A END_A - STORY MID7 VAV TERMINAL OUTLET AIR NODE,Air,4
 Node,64,ZONE OFFICE WHOLEBUILDING - LG OFFICE A END_A - STORY MID7 RETURN AIR NODE,Air,2
 Node,65,ZONE OFFICE WHOLEBUILDING - LG OFFICE A END_A - STORY MID8 VAV TERMINAL OUTLET AIR NODE,Air,4
 Node,66,ZONE OFFICE WHOLEBUILDING - LG OFFICE A END_A - STORY MID8 RETURN AIR NODE,Air,2
 Node,67,ZONE OFFICE WHOLEBUILDING - LG OFFICE A END_A - STORY MID9 VAV TERMINAL OUTLET AIR NODE,Air,4
 Node,68,ZONE OFFICE WHOLEBUILDING - LG OFFICE A END_A - STORY MID9 RETURN AIR NODE,Air,2
 Node,69,ZONE OFFICE WHOLEBUILDING - LG OFFICE A END_A - STORY TOP VAV TERMINAL OUTLET AIR NODE,Air,4
 Node,70,ZONE OFFICE WHOLEBUILDING - LG OFFICE A END_A - STORY TOP RETURN AIR NODE,Air,2
 Node,71,ZONE OFFICE WHOLEBUILDING - LG OFFICE A END_B - STORY MID VAV TERMINAL OUTLET AIR NODE,Air,4
 Node,72,ZONE OFFICE WHOLEBUILDING - LG OFFICE A END_B - STORY MID RETURN AIR NODE,Air,2
 Node,73,ZONE OFFICE WHOLEBUILDING - LG OFFICE A END_B - STORY MID10 VAV TERMINAL OUTLET AIR NODE,Air,4
 Node,74,ZONE OFFICE WHOLEBUILDING - LG OFFICE A END_B - STORY MID10 RETURN AIR NODE,Air,2
 Node,75,ZONE OFFICE WHOLEBUILDING - LG OFFICE A END_B - STORY MID11 VAV TERMINAL OUTLET AIR NODE,Air,4
 Node,76,ZONE OFFICE WHOLEBUILDING - LG OFFICE A END_B - STORY MID11 RETURN AIR NODE,Air,2
 Node,77,ZONE OFFICE WHOLEBUILDING - LG OFFICE A END_B - STORY MID2 VAV TERMINAL OUTLET AIR NODE,Air,4
 Node,78,ZONE OFFICE WHOLEBUILDING - LG OFFICE A END_B - STORY MID2 RETURN AIR NODE,Air,2
 Node,79,ZONE OFFICE WHOLEBUILDING - LG OFFICE A END_B - STORY MID3 VAV TERMINAL OUTLET AIR NODE,Air,4
 Node,80,ZONE OFFICE WHOLEBUILDING - LG OFFICE A END_B - STORY MID3 RETURN AIR NODE,Air,2
 Node,81,ZONE OFFICE WHOLEBUILDING - LG OFFICE A END_B - STORY MID4 VAV TERMINAL OUTLET AIR NODE,Air,4
 Node,82,ZONE OFFICE WHOLEBUILDING - LG OFFICE A END_B - STORY MID4 RETURN AIR NODE,Air,2
 Node,83,ZONE OFFICE WHOLEBUILDING - LG OFFICE A END_B - STORY MID5 VAV TERMINAL OUTLET AIR NODE,Air,4
 Node,84,ZONE OFFICE WHOLEBUILDING - LG OFFICE A END_B - STORY MID5 RETURN AIR NODE,Air,2
 Node,85,ZONE OFFICE WHOLEBUILDING - LG OFFICE A END_B - STORY MID6 VAV TERMINAL OUTLET AIR NODE,Air,4
 Node,86,ZONE OFFICE WHOLEBUILDING - LG OFFICE A END_B - STORY MID6 RETURN AIR NODE,Air,2
 Node,87,ZONE OFFICE WHOLEBUILDING - LG OFFICE A END_B - STORY MID7 VAV TERMINAL OUTLET AIR NODE,Air,4
 Node,88,ZONE OFFICE WHOLEBUILDING - LG OFFICE A END_B - STORY MID7 RETURN AIR NODE,Air,2
 Node,89,ZONE OFFICE WHOLEBUILDING - LG OFFICE A END_B - STORY MID8 VAV TERMINAL OUTLET AIR NODE,Air,4
 Node,90,ZONE OFFICE WHOLEBUILDING - LG OFFICE A END_B - STORY MID8 RETURN AIR NODE,Air,2
 Node,91,ZONE OFFICE WHOLEBUILDING - LG OFFICE A END_B - STORY MID9 VAV TERMINAL OUTLET AIR NODE,Air,4
 Node,92,ZONE OFFICE WHOLEBUILDING - LG OFFICE A END_B - STORY MID9 RETURN AIR NODE,Air,2
 Node,93,ZONE OFFICE WHOLEBUILDING - LG OFFICE A END_B - STORY TOP VAV TERMINAL OUTLET AIR NODE,Air,4
 Node,94,ZONE OFFICE WHOLEBUILDING - LG OFFICE A END_B - STORY TOP RETURN AIR NODE,Air,2
 Node,95,ZONE OFFICE WHOLEBUILDING - LG OFFICE B  - STORY GROUND VAV TERMINAL OUTLET AIR NODE,Air,4
 Node,96,ZONE OFFICE WHOLEBUILDING - LG OFFICE B  - STORY GROUND RETURN AIR NODE,Air,2
 Node,97,ZONE OFFICE WHOLEBUILDING - LG OFFICE B  - STORY MID VAV TERMINAL OUTLET AIR NODE,Air,4
 Node,98,ZONE OFFICE WHOLEBUILDING - LG OFFICE B  - STORY MID RETURN AIR NODE,Air,2
 Node,99,ZONE OFFICE WHOLEBUILDING - LG OFFICE B  - STORY MID10 VAV TERMINAL OUTLET AIR NODE,Air,4
 Node,100,ZONE OFFICE WHOLEBUILDING - LG OFFICE B  - STORY MID10 RETURN AIR NODE,Air,2
 Node,101,ZONE OFFICE WHOLEBUILDING - LG OFFICE B  - STORY MID11 VAV TERMINAL OUTLET AIR NODE,Air,4
 Node,102,ZONE OFFICE WHOLEBUILDING - LG OFFICE B  - STORY MID11 RETURN AIR NODE,Air,2
 Node,103,ZONE OFFICE WHOLEBUILDING - LG OFFICE B  - STORY MID2 VAV TERMINAL OUTLET AIR NODE,Air,4
 Node,104,ZONE OFFICE WHOLEBUILDING - LG OFFICE B  - STORY MID2 RETURN AIR NODE,Air,2
 Node,105,ZONE OFFICE WHOLEBUILDING - LG OFFICE B  - STORY MID3 VAV TERMINAL OUTLET AIR NODE,Air,4
 Node,106,ZONE OFFICE WHOLEBUILDING - LG OFFICE B  - STORY MID3 RETURN AIR NODE,Air,2
 Node,107,ZONE OFFICE WHOLEBUILDING - LG OFFICE B  - STORY MID4 VAV TERMINAL OUTLET AIR NODE,Air,4
 Node,108,ZONE OFFICE WHOLEBUILDING - LG OFFICE B  - STORY MID4 RETURN AIR NODE,Air,2
 Node,109,ZONE OFFICE WHOLEBUILDING - LG OFFICE B  - STORY MID5 VAV TERMINAL OUTLET AIR NODE,Air,4
 Node,110,ZONE OFFICE WHOLEBUILDING - LG OFFICE B  - STORY MID5 RETURN AIR NODE,Air,2
 Node,111,ZONE OFFICE WHOLEBUILDING - LG OFFICE B  - STORY MID6 VAV TERMINAL OUTLET AIR NODE,Air,4
 Node,112,ZONE OFFICE WHOLEBUILDING - LG OFFICE B  - STORY MID6 RETURN AIR NODE,Air,2
 Node,113,ZONE OFFICE WHOLEBUILDING - LG OFFICE B  - STORY MID7 VAV TERMINAL OUTLET AIR NODE,Air,4
 Node,114,ZONE OFFICE WHOLEBUILDING - LG OFFICE B  - STORY MID7 RETURN AIR NODE,Air,2
 Node,115,ZONE OFFICE WHOLEBUILDING - LG OFFICE B  - STORY MID8 VAV TERMINAL OUTLET AIR NODE,Air,4
 Node,116,ZONE OFFICE WHOLEBUILDING - LG OFFICE B  - STORY MID8 RETURN AIR NODE,Air,2
 Node,117,ZONE OFFICE WHOLEBUILDING - LG OFFICE B  - STORY MID9 VAV TERMINAL OUTLET AIR NODE,Air,4
 Node,118,ZONE OFFICE WHOLEBUILDING - LG OFFICE B  - STORY MID9 RETURN AIR NODE,Air,2
 Node,119,ZONE OFFICE WHOLEBUILDING - LG OFFICE B  - STORY TOP VAV TERMINAL OUTLET AIR NODE,Air,4
 Node,120,ZONE OFFICE WHOLEBUILDING - LG OFFICE B  - STORY TOP RETURN AIR NODE,Air,2
 Node,121,ZONE OFFICE WHOLEBUILDING - LG OFFICE B END_A - STORY GROUND VAV TERMINAL OUTLET AIR NODE,Air,4
 Node,122,ZONE OFFICE WHOLEBUILDING - LG OFFICE B END_A - STORY GROUND RETURN AIR NODE,Air,2
 Node,123,ZONE OFFICE WHOLEBUILDING - LG OFFICE B END_A - STORY MID VAV TERMINAL OUTLET AIR NODE,Air,4
 Node,124,ZONE OFFICE WHOLEBUILDING - LG OFFICE B END_A - STORY MID RETURN AIR NODE,Air,2
 Node,125,ZONE OFFICE WHOLEBUILDING - LG OFFICE B END_A - STORY MID10 VAV TERMINAL OUTLET AIR NODE,Air,4
 Node,126,ZONE OFFICE WHOLEBUILDING - LG OFFICE B END_A - STORY MID10 RETURN AIR NODE,Air,2
 Node,127,ZONE OFFICE WHOLEBUILDING - LG OFFICE B END_A - STORY MID11 VAV TERMINAL OUTLET AIR NODE,Air,4
 Node,128,ZONE OFFICE WHOLEBUILDING - LG OFFICE B END_A - STORY MID11 RETURN AIR NODE,Air,2
 Node,129,ZONE OFFICE WHOLEBUILDING - LG OFFICE B END_A - STORY MID2 VAV TERMINAL OUTLET AIR NODE,Air,4
 Node,130,ZONE OFFICE WHOLEBUILDING - LG OFFICE B END_A - STORY MID2 RETURN AIR NODE,Air,2
 Node,131,ZONE OFFICE WHOLEBUILDING - LG OFFICE B END_A - STORY MID3 VAV TERMINAL OUTLET AIR NODE,Air,4
 Node,132,ZONE OFFICE WHOLEBUILDING - LG OFFICE B END_A - STORY MID3 RETURN AIR NODE,Air,2
 Node,133,ZONE OFFICE WHOLEBUILDING - LG OFFICE B END_A - STORY MID4 VAV TERMINAL OUTLET AIR NODE,Air,4
 Node,134,ZONE OFFICE WHOLEBUILDING - LG OFFICE B END_A - STORY MID4 RETURN AIR NODE,Air,2
 Node,135,ZONE OFFICE WHOLEBUILDING - LG OFFICE B END_A - STORY MID5 VAV TERMINAL OUTLET AIR NODE,Air,4
 Node,136,ZONE OFFICE WHOLEBUILDING - LG OFFICE B END_A - STORY MID5 RETURN AIR NODE,Air,2
 Node,137,ZONE OFFICE WHOLEBUILDING - LG OFFICE B END_A - STORY MID6 VAV TERMINAL OUTLET AIR NODE,Air,4
 Node,138,ZONE OFFICE WHOLEBUILDING - LG OFFICE B END_A - STORY MID6 RETURN AIR NODE,Air,2
 Node,139,ZONE OFFICE WHOLEBUILDING - LG OFFICE B END_A - STORY MID7 VAV TERMINAL OUTLET AIR NODE,Air,4
 Node,140,ZONE OFFICE WHOLEBUILDING - LG OFFICE B END_A - STORY MID7 RETURN AIR NODE,Air,2
 Node,141,ZONE OFFICE WHOLEBUILDING - LG OFFICE B END_A - STORY MID8 VAV TERMINAL OUTLET AIR NODE,Air,4
 Node,142,ZONE OFFICE WHOLEBUILDING - LG OFFICE B END_A - STORY MID8 RETURN AIR NODE,Air,2
 Node,143,ZONE OFFICE WHOLEBUILDING - LG OFFICE B END_A - STORY MID9 VAV TERMINAL OUTLET AIR NODE,Air,4
 Node,144,ZONE OFFICE WHOLEBUILDING - LG OFFICE B END_A - STORY MID9 RETURN AIR NODE,Air,2
 Node,145,ZONE OFFICE WHOLEBUILDING - LG OFFICE B END_A - STORY TOP VAV TERMINAL OUTLET AIR NODE,Air,4
 Node,146,ZONE OFFICE WHOLEBUILDING - LG OFFICE B END_A - STORY TOP RETURN AIR NODE,Air,2
 Node,147,ZONE OFFICE WHOLEBUILDING - LG OFFICE B END_B - STORY MID VAV TERMINAL OUTLET AIR NODE,Air,4
 Node,148,ZONE OFFICE WHOLEBUILDING - LG OFFICE B END_B - STORY MID RETURN AIR NODE,Air,2
 Node,149,ZONE OFFICE WHOLEBUILDING - LG OFFICE B END_B - STORY MID10 VAV TERMINAL OUTLET AIR NODE,Air,4
 Node,150,ZONE OFFICE WHOLEBUILDING - LG OFFICE B END_B - STORY MID10 RETURN AIR NODE,Air,2
 Node,151,ZONE OFFICE WHOLEBUILDING - LG OFFICE B END_B - STORY MID11 VAV TERMINAL OUTLET AIR NODE,Air,4
 Node,152,ZONE OFFICE WHOLEBUILDING - LG OFFICE B END_B - STORY MID11 RETURN AIR NODE,Air,2
 Node,153,ZONE OFFICE WHOLEBUILDING - LG OFFICE B END_B - STORY MID2 VAV TERMINAL OUTLET AIR NODE,Air,4
 Node,154,ZONE OFFICE WHOLEBUILDING - LG OFFICE B END_B - STORY MID2 RETURN AIR NODE,Air,2
 Node,155,ZONE OFFICE WHOLEBUILDING - LG OFFICE B END_B - STORY MID3 VAV TERMINAL OUTLET AIR NODE,Air,4
 Node,156,ZONE OFFICE WHOLEBUILDING - LG OFFICE B END_B - STORY MID3 RETURN AIR NODE,Air,2
 Node,157,ZONE OFFICE WHOLEBUILDING - LG OFFICE B END_B - STORY MID4 VAV TERMINAL OUTLET AIR NODE,Air,4
 Node,158,ZONE OFFICE WHOLEBUILDING - LG OFFICE B END_B - STORY MID4 RETURN AIR NODE,Air,2
 Node,159,ZONE OFFICE WHOLEBUILDING - LG OFFICE B END_B - STORY MID5 VAV TERMINAL OUTLET AIR NODE,Air,4
 Node,160,ZONE OFFICE WHOLEBUILDING - LG OFFICE B END_B - STORY MID5 RETURN AIR NODE,Air,2
 Node,161,ZONE OFFICE WHOLEBUILDING - LG OFFICE B END_B - STORY MID6 VAV TERMINAL OUTLET AIR NODE,Air,4
 Node,162,ZONE OFFICE WHOLEBUILDING - LG OFFICE B END_B - STORY MID6 RETURN AIR NODE,Air,2
 Node,163,ZONE OFFICE WHOLEBUILDING - LG OFFICE B END_B - STORY MID7 VAV TERMINAL OUTLET AIR NODE,Air,4
 Node,164,ZONE OFFICE WHOLEBUILDING - LG OFFICE B END_B - STORY MID7 RETURN AIR NODE,Air,2
 Node,165,ZONE OFFICE WHOLEBUILDING - LG OFFICE B END_B - STORY MID8 VAV TERMINAL OUTLET AIR NODE,Air,4
 Node,166,ZONE OFFICE WHOLEBUILDING - LG OFFICE B END_B - STORY MID8 RETURN AIR NODE,Air,2
 Node,167,ZONE OFFICE WHOLEBUILDING - LG OFFICE B END_B - STORY MID9 VAV TERMINAL OUTLET AIR NODE,Air,4
 Node,168,ZONE OFFICE WHOLEBUILDING - LG OFFICE B END_B - STORY MID9 RETURN AIR NODE,Air,2
 Node,169,ZONE OFFICE WHOLEBUILDING - LG OFFICE B END_B - STORY TOP VAV TERMINAL OUTLET AIR NODE,Air,4
 Node,170,ZONE OFFICE WHOLEBUILDING - LG OFFICE B END_B - STORY TOP RETURN AIR NODE,Air,2
 Node,171,ZONE OFFICE WHOLEBUILDING - LG OFFICE C  - STORY GROUND VAV TERMINAL OUTLET AIR NODE,Air,4
 Node,172,ZONE OFFICE WHOLEBUILDING - LG OFFICE C  - STORY GROUND RETURN AIR NODE,Air,2
 Node,173,ZONE OFFICE WHOLEBUILDING - LG OFFICE C  - STORY MID VAV TERMINAL OUTLET AIR NODE,Air,4
 Node,174,ZONE OFFICE WHOLEBUILDING - LG OFFICE C  - STORY MID RETURN AIR NODE,Air,2
 Node,175,ZONE OFFICE WHOLEBUILDING - LG OFFICE C  - STORY MID10 VAV TERMINAL OUTLET AIR NODE,Air,4
 Node,176,ZONE OFFICE WHOLEBUILDING - LG OFFICE C  - STORY MID10 RETURN AIR NODE,Air,2
 Node,177,ZONE OFFICE WHOLEBUILDING - LG OFFICE C  - STORY MID11 VAV TERMINAL OUTLET AIR NODE,Air,4
 Node,178,ZONE OFFICE WHOLEBUILDING - LG OFFICE C  - STORY MID11 RETURN AIR NODE,Air,2
 Node,179,ZONE OFFICE WHOLEBUILDING - LG OFFICE C  - STORY MID2 VAV TERMINAL OUTLET AIR NODE,Air,4
 Node,180,ZONE OFFICE WHOLEBUILDING - LG OFFICE C  - STORY MID2 RETURN AIR NODE,Air,2
 Node,181,ZONE OFFICE WHOLEBUILDING - LG OFFICE C  - STORY MID3 VAV TERMINAL OUTLET AIR NODE,Air,4
 Node,182,ZONE OFFICE WHOLEBUILDING - LG OFFICE C  - STORY MID3 RETURN AIR NODE,Air,2
 Node,183,ZONE OFFICE WHOLEBUILDING - LG OFFICE C  - STORY MID4 VAV TERMINAL OUTLET AIR NODE,Air,4
 Node,184,ZONE OFFICE WHOLEBUILDING - LG OFFICE C  - STORY MID4 RETURN AIR NODE,Air,2
 Node,185,ZONE OFFICE WHOLEBUILDING - LG OFFICE C  - STORY MID5 VAV TERMINAL OUTLET AIR NODE,Air,4
 Node,186,ZONE OFFICE WHOLEBUILDING - LG OFFICE C  - STORY MID5 RETURN AIR NODE,Air,2
 Node,187,ZONE OFFICE WHOLEBUILDING - LG OFFICE C  - STORY MID6 VAV TERMINAL OUTLET AIR NODE,Air,4
 Node,188,ZONE OFFICE WHOLEBUILDING - LG OFFICE C  - STORY MID6 RETURN AIR NODE,Air,2
 Node,189,ZONE OFFICE WHOLEBUILDING - LG OFFICE C  - STORY MID7 VAV TERMINAL OUTLET AIR NODE,Air,4
 Node,190,ZONE OFFICE WHOLEBUILDING - LG OFFICE C  - STORY MID7 RETURN AIR NODE,Air,2
 Node,191,ZONE OFFICE WHOLEBUILDING - LG OFFICE C  - STORY MID8 VAV TERMINAL OUTLET AIR NODE,Air,4
 Node,192,ZONE OFFICE WHOLEBUILDING - LG OFFICE C  - STORY MID8 RETURN AIR NODE,Air,2
 Node,193,ZONE OFFICE WHOLEBUILDING - LG OFFICE C  - STORY MID9 VAV TERMINAL OUTLET AIR NODE,Air,4
 Node,194,ZONE OFFICE WHOLEBUILDING - LG OFFICE C  - STORY MID9 RETURN AIR NODE,Air,2
 Node,195,ZONE OFFICE WHOLEBUILDING - LG OFFICE C  - STORY TOP VAV TERMINAL OUTLET AIR NODE,Air,4
 Node,196,ZONE OFFICE WHOLEBUILDING - LG OFFICE C  - STORY TOP RETURN AIR NODE,Air,2
 Node,197,ZONE OFFICE WHOLEBUILDING - LG OFFICE C END_A - STORY GROUND VAV TERMINAL OUTLET AIR NODE,Air,4
 Node,198,ZONE OFFICE WHOLEBUILDING - LG OFFICE C END_A - STORY GROUND RETURN AIR NODE,Air,2
 Node,199,ZONE OFFICE WHOLEBUILDING - LG OFFICE C END_A - STORY MID VAV TERMINAL OUTLET AIR NODE,Air,4
 Node,200,ZONE OFFICE WHOLEBUILDING - LG OFFICE C END_A - STORY MID RETURN AIR NODE,Air,2
 Node,201,ZONE OFFICE WHOLEBUILDING - LG OFFICE C END_A - STORY MID10 VAV TERMINAL OUTLET AIR NODE,Air,4
 Node,202,ZONE OFFICE WHOLEBUILDING - LG OFFICE C END_A - STORY MID10 RETURN AIR NODE,Air,2
 Node,203,ZONE OFFICE WHOLEBUILDING - LG OFFICE C END_A - STORY MID11 VAV TERMINAL OUTLET AIR NODE,Air,4
 Node,204,ZONE OFFICE WHOLEBUILDING - LG OFFICE C END_A - STORY MID11 RETURN AIR NODE,Air,2
 Node,205,ZONE OFFICE WHOLEBUILDING - LG OFFICE C END_A - STORY MID2 VAV TERMINAL OUTLET AIR NODE,Air,4
 Node,206,ZONE OFFICE WHOLEBUILDING - LG OFFICE C END_A - STORY MID2 RETURN AIR NODE,Air,2
 Node,207,ZONE OFFICE WHOLEBUILDING - LG OFFICE C END_A - STORY MID3 VAV TERMINAL OUTLET AIR NODE,Air,4
 Node,208,ZONE OFFICE WHOLEBUILDING - LG OFFICE C END_A - STORY MID3 RETURN AIR NODE,Air,2
 Node,209,ZONE OFFICE WHOLEBUILDING - LG OFFICE C END_A - STORY MID4 VAV TERMINAL OUTLET AIR NODE,Air,4
 Node,210,ZONE OFFICE WHOLEBUILDING - LG OFFICE C END_A - STORY MID4 RETURN AIR NODE,Air,2
 Node,211,ZONE OFFICE WHOLEBUILDING - LG OFFICE C END_A - STORY MID5 VAV TERMINAL OUTLET AIR NODE,Air,4
 Node,212,ZONE OFFICE WHOLEBUILDING - LG OFFICE C END_A - STORY MID5 RETURN AIR NODE,Air,2
 Node,213,ZONE OFFICE WHOLEBUILDING - LG OFFICE C END_A - STORY MID6 VAV TERMINAL OUTLET AIR NODE,Air,4
 Node,214,ZONE OFFICE WHOLEBUILDING - LG OFFICE C END_A - STORY MID6 RETURN AIR NODE,Air,2
 Node,215,ZONE OFFICE WHOLEBUILDING - LG OFFICE C END_A - STORY MID7 VAV TERMINAL OUTLET AIR NODE,Air,4
 Node,216,ZONE OFFICE WHOLEBUILDING - LG OFFICE C END_A - STORY MID7 RETURN AIR NODE,Air,2
 Node,217,ZONE OFFICE WHOLEBUILDING - LG OFFICE C END_A - STORY MID8 VAV TERMINAL OUTLET AIR NODE,Air,4
 Node,218,ZONE OFFICE WHOLEBUILDING - LG OFFICE C END_A - STORY MID8 RETURN AIR NODE,Air,2
 Node,219,ZONE OFFICE WHOLEBUILDING - LG OFFICE C END_A - STORY MID9 VAV TERMINAL OUTLET AIR NODE,Air,4
 Node,220,ZONE OFFICE WHOLEBUILDING - LG OFFICE C END_A - STORY MID9 RETURN AIR NODE,Air,2
 Node,221,ZONE OFFICE WHOLEBUILDING - LG OFFICE C END_A - STORY TOP VAV TERMINAL OUTLET AIR NODE,Air,4
 Node,222,ZONE OFFICE WHOLEBUILDING - LG OFFICE C END_A - STORY TOP RETURN AIR NODE,Air,2
 Node,223,ZONE OFFICE WHOLEBUILDING - LG OFFICE C END_B - STORY MID VAV TERMINAL OUTLET AIR NODE,Air,4
 Node,224,ZONE OFFICE WHOLEBUILDING - LG OFFICE C END_B - STORY MID RETURN AIR NODE,Air,2
 Node,225,ZONE OFFICE WHOLEBUILDING - LG OFFICE C END_B - STORY MID10 VAV TERMINAL OUTLET AIR NODE,Air,4
 Node,226,ZONE OFFICE WHOLEBUILDING - LG OFFICE C END_B - STORY MID10 RETURN AIR NODE,Air,2
 Node,227,ZONE OFFICE WHOLEBUILDING - LG OFFICE C END_B - STORY MID11 VAV TERMINAL OUTLET AIR NODE,Air,4
 Node,228,ZONE OFFICE WHOLEBUILDING - LG OFFICE C END_B - STORY MID11 RETURN AIR NODE,Air,2
 Node,229,ZONE OFFICE WHOLEBUILDING - LG OFFICE C END_B - STORY MID2 VAV TERMINAL OUTLET AIR NODE,Air,4
 Node,230,ZONE OFFICE WHOLEBUILDING - LG OFFICE C END_B - STORY MID2 RETURN AIR NODE,Air,2
 Node,231,ZONE OFFICE WHOLEBUILDING - LG OFFICE C END_B - STORY MID3 VAV TERMINAL OUTLET AIR NODE,Air,4
 Node,232,ZONE OFFICE WHOLEBUILDING - LG OFFICE C END_B - STORY MID3 RETURN AIR NODE,Air,2
 Node,233,ZONE OFFICE WHOLEBUILDING - LG OFFICE C END_B - STORY MID4 VAV TERMINAL OUTLET AIR NODE,Air,4
 Node,234,ZONE OFFICE WHOLEBUILDING - LG OFFICE C END_B - STORY MID4 RETURN AIR NODE,Air,2
 Node,235,ZONE OFFICE WHOLEBUILDING - LG OFFICE C END_B - STORY MID5 VAV TERMINAL OUTLET AIR NODE,Air,4
 Node,236,ZONE OFFICE WHOLEBUILDING - LG OFFICE C END_B - STORY MID5 RETURN AIR NODE,Air,2
 Node,237,ZONE OFFICE WHOLEBUILDING - LG OFFICE C END_B - STORY MID6 VAV TERMINAL OUTLET AIR NODE,Air,4
 Node,238,ZONE OFFICE WHOLEBUILDING - LG OFFICE C END_B - STORY MID6 RETURN AIR NODE,Air,2
 Node,239,ZONE OFFICE WHOLEBUILDING - LG OFFICE C END_B - STORY MID7 VAV TERMINAL OUTLET AIR NODE,Air,4
 Node,240,ZONE OFFICE WHOLEBUILDING - LG OFFICE C END_B - STORY MID7 RETURN AIR NODE,Air,2
 Node,241,ZONE OFFICE WHOLEBUILDING - LG OFFICE C END_B - STORY MID8 VAV TERMINAL OUTLET AIR NODE,Air,4
 Node,242,ZONE OFFICE WHOLEBUILDING - LG OFFICE C END_B - STORY MID8 RETURN AIR NODE,Air,2
 Node,243,ZONE OFFICE WHOLEBUILDING - LG OFFICE C END_B - STORY MID9 VAV TERMINAL OUTLET AIR NODE,Air,4
 Node,244,ZONE OFFICE WHOLEBUILDING - LG OFFICE C END_B - STORY MID9 RETURN AIR NODE,Air,2
 Node,245,ZONE OFFICE WHOLEBUILDING - LG OFFICE C END_B - STORY TOP VAV TERMINAL OUTLET AIR NODE,Air,4
 Node,246,ZONE OFFICE WHOLEBUILDING - LG OFFICE C END_B - STORY TOP RETURN AIR NODE,Air,2
 Node,247,15 ZONE VAV SUPPLY OUTLET NODE,Air,10
 Node,248,15 ZONE VAV DEMAND INLET NODE,Air,3
 Node,249,9 ZONE VAV SUPPLY OUTLET NODE,Air,10
 Node,250,9 ZONE VAV DEMAND INLET NODE,Air,3
 Node,251,9 ZONE VAV 1 SUPPLY OUTLET NODE,Air,10
 Node,252,9 ZONE VAV 1 DEMAND INLET NODE,Air,3
 Node,253,9 ZONE VAV 10 SUPPLY OUTLET NODE,Air,10
 Node,254,9 ZONE VAV 10 DEMAND INLET NODE,Air,3
 Node,255,9 ZONE VAV 11 SUPPLY OUTLET NODE,Air,10
 Node,256,9 ZONE VAV 11 DEMAND INLET NODE,Air,3
 Node,257,9 ZONE VAV 2 SUPPLY OUTLET NODE,Air,10
 Node,258,9 ZONE VAV 2 DEMAND INLET NODE,Air,3
 Node,259,9 ZONE VAV 3 SUPPLY OUTLET NODE,Air,10
 Node,260,9 ZONE VAV 3 DEMAND INLET NODE,Air,3
 Node,261,9 ZONE VAV 4 SUPPLY OUTLET NODE,Air,10
 Node,262,9 ZONE VAV 4 DEMAND INLET NODE,Air,3
 Node,263,9 ZONE VAV 5 SUPPLY OUTLET NODE,Air,10
 Node,264,9 ZONE VAV 5 DEMAND INLET NODE,Air,3
 Node,265,9 ZONE VAV 6 SUPPLY OUTLET NODE,Air,10
 Node,266,9 ZONE VAV 6 DEMAND INLET NODE,Air,3
 Node,267,9 ZONE VAV 7 SUPPLY OUTLET NODE,Air,10
 Node,268,9 ZONE VAV 7 DEMAND INLET NODE,Air,3
 Node,269,9 ZONE VAV 8 SUPPLY OUTLET NODE,Air,10
 Node,270,9 ZONE VAV 8 DEMAND INLET NODE,Air,3
 Node,271,9 ZONE VAV 9 SUPPLY OUTLET NODE,Air,10
 Node,272,9 ZONE VAV 9 DEMAND INLET NODE,Air,3
 Node,273,15 ZONE VAV SUPPLY INLET NODE,Air,3
 Node,274,15 ZONE VAV MIXED AIR NODE,Air,5
 Node,275,15 ZONE VAV CLG COIL OUTLET AIR NODE,Air,5
 Node,276,15 ZONE VAV MAIN HTG COIL OUTLET AIR NODE,Air,8
 Node,277,9 ZONE VAV SUPPLY INLET NODE,Air,3
 Node,278,9 ZONE VAV MIXED AIR NODE,Air,5
 Node,279,9 ZONE VAV CLG COIL OUTLET AIR NODE,Air,5
 Node,280,9 ZONE VAV MAIN HTG COIL OUTLET AIR NODE,Air,8
 Node,281,9 ZONE VAV 1 SUPPLY INLET NODE,Air,3
 Node,282,9 ZONE VAV 1 MIXED AIR NODE,Air,5
 Node,283,9 ZONE VAV 1 CLG COIL OUTLET AIR NODE,Air,5
 Node,284,9 ZONE VAV 1 MAIN HTG COIL OUTLET AIR NODE,Air,8
 Node,285,9 ZONE VAV 10 SUPPLY INLET NODE,Air,3
 Node,286,9 ZONE VAV 10 MIXED AIR NODE,Air,5
 Node,287,9 ZONE VAV 10 CLG COIL OUTLET AIR NODE,Air,5
 Node,288,9 ZONE VAV 10 MAIN HTG COIL OUTLET AIR NODE,Air,8
 Node,289,9 ZONE VAV 11 SUPPLY INLET NODE,Air,3
 Node,290,9 ZONE VAV 11 MIXED AIR NODE,Air,5
 Node,291,9 ZONE VAV 11 CLG COIL OUTLET AIR NODE,Air,5
 Node,292,9 ZONE VAV 11 MAIN HTG COIL OUTLET AIR NODE,Air,8
 Node,293,9 ZONE VAV 2 SUPPLY INLET NODE,Air,3
 Node,294,9 ZONE VAV 2 MIXED AIR NODE,Air,5
 Node,295,9 ZONE VAV 2 CLG COIL OUTLET AIR NODE,Air,5
 Node,296,9 ZONE VAV 2 MAIN HTG COIL OUTLET AIR NODE,Air,8
 Node,297,9 ZONE VAV 3 SUPPLY INLET NODE,Air,3
 Node,298,9 ZONE VAV 3 MIXED AIR NODE,Air,5
 Node,299,9 ZONE VAV 3 CLG COIL OUTLET AIR NODE,Air,5
 Node,300,9 ZONE VAV 3 MAIN HTG COIL OUTLET AIR NODE,Air,8
 Node,301,9 ZONE VAV 4 SUPPLY INLET NODE,Air,3
 Node,302,9 ZONE VAV 4 MIXED AIR NODE,Air,5
 Node,303,9 ZONE VAV 4 CLG COIL OUTLET AIR NODE,Air,5
 Node,304,9 ZONE VAV 4 MAIN HTG COIL OUTLET AIR NODE,Air,8
 Node,305,9 ZONE VAV 5 SUPPLY INLET NODE,Air,3
 Node,306,9 ZONE VAV 5 MIXED AIR NODE,Air,5
 Node,307,9 ZONE VAV 5 CLG COIL OUTLET AIR NODE,Air,5
 Node,308,9 ZONE VAV 5 MAIN HTG COIL OUTLET AIR NODE,Air,8
 Node,309,9 ZONE VAV 6 SUPPLY INLET NODE,Air,3
 Node,310,9 ZONE VAV 6 MIXED AIR NODE,Air,5
 Node,311,9 ZONE VAV 6 CLG COIL OUTLET AIR NODE,Air,5
 Node,312,9 ZONE VAV 6 MAIN HTG COIL OUTLET AIR NODE,Air,8
 Node,313,9 ZONE VAV 7 SUPPLY INLET NODE,Air,3
 Node,314,9 ZONE VAV 7 MIXED AIR NODE,Air,5
 Node,315,9 ZONE VAV 7 CLG COIL OUTLET AIR NODE,Air,5
 Node,316,9 ZONE VAV 7 MAIN HTG COIL OUTLET AIR NODE,Air,8
 Node,317,9 ZONE VAV 8 SUPPLY INLET NODE,Air,3
 Node,318,9 ZONE VAV 8 MIXED AIR NODE,Air,5
 Node,319,9 ZONE VAV 8 CLG COIL OUTLET AIR NODE,Air,5
 Node,320,9 ZONE VAV 8 MAIN HTG COIL OUTLET AIR NODE,Air,8
 Node,321,9 ZONE VAV 9 SUPPLY INLET NODE,Air,3
 Node,322,9 ZONE VAV 9 MIXED AIR NODE,Air,5
 Node,323,9 ZONE VAV 9 CLG COIL OUTLET AIR NODE,Air,5
 Node,324,9 ZONE VAV 9 MAIN HTG COIL OUTLET AIR NODE,Air,8
 Node,325,CHILLED WATER LOOP SUPPLY INLET NODE,Water,2
 Node,326,CHILLED WATER LOOP PRIMARY PUMP OUTLET WATER NODE,Water,1
 Node,327,COMSTOCK DOE REF PRE-1980 WATERCOOLED  ROTARY SCREW CHILLER 0 SUPPLY INLET WATER NODE,Water,1
 Node,328,COMSTOCK DOE REF PRE-1980 WATERCOOLED  ROTARY SCREW CHILLER 0 SUPPLY OUTLET WATER NODE,Water,1
 Node,329,CHILLED WATER LOOP CHILLER BYPASS INLET WATER NODE,Water,1
 Node,330,CHILLED WATER LOOP CHILLER BYPASS OUTLET WATER NODE,Water,1
 Node,331,CHILLED WATER LOOP SUPPLY OUTLET INLET WATER NODE,Water,1
 Node,332,CHILLED WATER LOOP SUPPLY OUTLET NODE,Water,4
 Node,333,CHILLED WATER LOOP DEMAND INLET NODE,Water,2
 Node,334,CHILLED WATER LOOP SECONDARY PUMP INLET WATER NODE,Water,3
 Node,335,CHILLED WATER LOOP SECONDARY PUMP OUTLET WATER NODE,Water,1
 Node,336,CHILLED WATER LOOP COIL BYPASS INLET WATER NODE,Water,1
 Node,337,CHILLED WATER LOOP COIL BYPASS OUTLET WATER NODE,Water,1
 Node,338,15 ZONE VAV CLG COIL INLET WATER NODE,Water,2
 Node,339,15 ZONE VAV CLG COIL OUTLET WATER NODE,Water,1
 Node,340,9 ZONE VAV CLG COIL INLET WATER NODE,Water,2
 Node,341,9 ZONE VAV CLG COIL OUTLET WATER NODE,Water,1
 Node,342,9 ZONE VAV 1 CLG COIL INLET WATER NODE,Water,2
 Node,343,9 ZONE VAV 1 CLG COIL OUTLET WATER NODE,Water,1
 Node,344,9 ZONE VAV 2 CLG COIL INLET WATER NODE,Water,2
 Node,345,9 ZONE VAV 2 CLG COIL OUTLET WATER NODE,Water,1
 Node,346,9 ZONE VAV 3 CLG COIL INLET WATER NODE,Water,2
 Node,347,9 ZONE VAV 3 CLG COIL OUTLET WATER NODE,Water,1
 Node,348,9 ZONE VAV 4 CLG COIL INLET WATER NODE,Water,2
 Node,349,9 ZONE VAV 4 CLG COIL OUTLET WATER NODE,Water,1
 Node,350,9 ZONE VAV 5 CLG COIL INLET WATER NODE,Water,2
 Node,351,9 ZONE VAV 5 CLG COIL OUTLET WATER NODE,Water,1
 Node,352,9 ZONE VAV 6 CLG COIL INLET WATER NODE,Water,2
 Node,353,9 ZONE VAV 6 CLG COIL OUTLET WATER NODE,Water,1
 Node,354,9 ZONE VAV 7 CLG COIL INLET WATER NODE,Water,2
 Node,355,9 ZONE VAV 7 CLG COIL OUTLET WATER NODE,Water,1
 Node,356,9 ZONE VAV 8 CLG COIL INLET WATER NODE,Water,2
 Node,357,9 ZONE VAV 8 CLG COIL OUTLET WATER NODE,Water,1
 Node,358,9 ZONE VAV 9 CLG COIL INLET WATER NODE,Water,2
 Node,359,9 ZONE VAV 9 CLG COIL OUTLET WATER NODE,Water,1
 Node,360,9 ZONE VAV 10 CLG COIL INLET WATER NODE,Water,2
 Node,361,9 ZONE VAV 10 CLG COIL OUTLET WATER NODE,Water,1
 Node,362,9 ZONE VAV 11 CLG COIL INLET WATER NODE,Water,2
 Node,363,9 ZONE VAV 11 CLG COIL OUTLET WATER NODE,Water,1
 Node,364,CHILLED WATER LOOP DEMAND BYPASS PIPE INLET NODE,Water,1
 Node,365,CHILLED WATER LOOP DEMAND BYPASS PIPE OUTLET NODE,Water,1
 Node,366,CHILLED WATER LOOP DEMAND OUTLET INLET WATER NODE,Water,1
 Node,367,CHILLED WATER LOOP DEMAND OUTLET NODE,Water,2
 Node,368,CONDENSER WATER LOOP SUPPLY INLET NODE,Water,2
 Node,369,CONDENSER WATER LOOP CONSTANT PUMP OUTLET WATER NODE,Water,1
 Node,370,PROPELLER OR AXIAL VARIABLE SPEED FAN OPEN COOLING TOWER INLET WATER NODE,Water,1
 Node,371,PROPELLER OR AXIAL VARIABLE SPEED FAN OPEN COOLING TOWER OUTLET WATER NODE,Water,1
 Node,372,CONDENSER WATER LOOP COOLING TOWER BYPASS INLET WATER NODE,Water,1
 Node,373,CONDENSER WATER LOOP COOLING TOWER BYPASS OUTLET WATER NODE,Water,1
 Node,374,CONDENSER WATER LOOP SUPPLY OUTLET INLET WATER NODE,Water,1
 Node,375,CONDENSER WATER LOOP SUPPLY OUTLET NODE,Water,4
 Node,376,CONDENSER WATER LOOP DEMAND INLET NODE,Water,2
 Node,377,CONDENSER WATER LOOP DEMAND INLET OUTLET WATER NODE,Water,1
 Node,378,CONDENSER WATER LOOP CHILLER BYPASS INLET WATER NODE,Water,1
 Node,379,CONDENSER WATER LOOP CHILLER BYPASS OUTLET WATER NODE,Water,1
 Node,380,COMSTOCK DOE REF PRE-1980 WATERCOOLED  ROTARY SCREW CHILLER 0 DEMAND INLET WATER NODE,Water,1
 Node,381,COMSTOCK DOE REF PRE-1980 WATERCOOLED  ROTARY SCREW CHILLER 0 DEMAND OUTLET WATER NODE,Water,1
 Node,382,CONDENSER WATER LOOP DEMAND BYPASS PIPE INLET NODE,Water,1
 Node,383,CONDENSER WATER LOOP DEMAND BYPASS PIPE OUTLET NODE,Water,1
 Node,384,CONDENSER WATER LOOP DEMAND OUTLET INLET WATER NODE,Water,1
 Node,385,CONDENSER WATER LOOP DEMAND OUTLET NODE,Water,2
 Node,386,HOT WATER LOOP SUPPLY INLET NODE,Water,2
 Node,387,HOT WATER LOOP PUMP OUTLET WATER NODE,Water,1
 Node,388,BOILER INLET WATER NODE,Water,1
 Node,389,BOILER OUTLET WATER NODE,Water,1
 Node,390,HOT WATER LOOP SUPPLY EQUIPMENT BYPASS INLET WATER NODE,Water,1
 Node,391,HOT WATER LOOP SUPPLY EQUIPMENT BYPASS OUTLET WATER NODE,Water,1
 Node,392,HOT WATER LOOP SUPPLY OUTLET INLET WATER NODE,Water,1
 Node,393,HOT WATER LOOP SUPPLY OUTLET NODE,Water,4
 Node,394,HOT WATER LOOP DEMAND INLET NODE,Water,2
 Node,395,HOT WATER LOOP DEMAND INLET OUTLET WATER NODE,Water,1
 Node,396,HOT WATER LOOP COIL BYPASS INLET WATER NODE,Water,1
 Node,397,HOT WATER LOOP COIL BYPASS OUTLET WATER NODE,Water,1
 Node,398,15 ZONE VAV MAIN HTG COIL INLET WATER NODE,Water,2
 Node,399,15 ZONE VAV MAIN HTG COIL OUTLET WATER NODE,Water,1
 Node,400,ZONE OFFICE OFFICELARGE DATA CENTER A  - STORY GROUND REHEAT COIL INLET WATER NODE,Water,1
 Node,401,ZONE OFFICE OFFICELARGE DATA CENTER A  - STORY GROUND REHEAT COIL OUTLET WATER NODE,Water,1
 Node,402,ZONE OFFICE OFFICELARGE DATA CENTER B  - STORY GROUND REHEAT COIL INLET WATER NODE,Water,1
 Node,403,ZONE OFFICE OFFICELARGE DATA CENTER B  - STORY GROUND REHEAT COIL OUTLET WATER NODE,Water,1
 Node,404,ZONE OFFICE OFFICELARGE DATA CENTER C  - STORY GROUND REHEAT COIL INLET WATER NODE,Water,1
 Node,405,ZONE OFFICE OFFICELARGE DATA CENTER C  - STORY GROUND REHEAT COIL OUTLET WATER NODE,Water,1
 Node,406,ZONE OFFICE OFFICELARGE MAIN DATA CENTER A  - STORY GROUND REHEAT COIL INLET WATER NODE,Water,1
 Node,407,ZONE OFFICE OFFICELARGE MAIN DATA CENTER A  - STORY GROUND REHEAT COIL OUTLET WATER NODE,Water,1
 Node,408,ZONE OFFICE OFFICELARGE MAIN DATA CENTER A END_B - STORY GROUND REHEAT COIL INLET WATER NODE,Water,1
 Node,409,ZONE OFFICE OFFICELARGE MAIN DATA CENTER A END_B - STORY GROUND REHEAT COIL OUTLET WATER NODE,Water,1
 Node,410,ZONE OFFICE OFFICELARGE MAIN DATA CENTER B  - STORY GROUND REHEAT COIL INLET WATER NODE,Water,1
 Node,411,ZONE OFFICE OFFICELARGE MAIN DATA CENTER B  - STORY GROUND REHEAT COIL OUTLET WATER NODE,Water,1
 Node,412,ZONE OFFICE OFFICELARGE MAIN DATA CENTER B END_B - STORY GROUND REHEAT COIL INLET WATER NODE,Water,1
 Node,413,ZONE OFFICE OFFICELARGE MAIN DATA CENTER B END_B - STORY GROUND REHEAT COIL OUTLET WATER NODE,Water,1
 Node,414,ZONE OFFICE OFFICELARGE MAIN DATA CENTER C  - STORY GROUND REHEAT COIL INLET WATER NODE,Water,1
 Node,415,ZONE OFFICE OFFICELARGE MAIN DATA CENTER C  - STORY GROUND REHEAT COIL OUTLET WATER NODE,Water,1
 Node,416,ZONE OFFICE OFFICELARGE MAIN DATA CENTER C END_B - STORY GROUND REHEAT COIL INLET WATER NODE,Water,1
 Node,417,ZONE OFFICE OFFICELARGE MAIN DATA CENTER C END_B - STORY GROUND REHEAT COIL OUTLET WATER NODE,Water,1
 Node,418,ZONE OFFICE WHOLEBUILDING - LG OFFICE A  - STORY GROUND REHEAT COIL INLET WATER NODE,Water,1
 Node,419,ZONE OFFICE WHOLEBUILDING - LG OFFICE A  - STORY GROUND REHEAT COIL OUTLET WATER NODE,Water,1
 Node,420,ZONE OFFICE WHOLEBUILDING - LG OFFICE A END_A - STORY GROUND REHEAT COIL INLET WATER NODE,Water,1
 Node,421,ZONE OFFICE WHOLEBUILDING - LG OFFICE A END_A - STORY GROUND REHEAT COIL OUTLET WATER NODE,Water,1
 Node,422,ZONE OFFICE WHOLEBUILDING - LG OFFICE B  - STORY GROUND REHEAT COIL INLET WATER NODE,Water,1
 Node,423,ZONE OFFICE WHOLEBUILDING - LG OFFICE B  - STORY GROUND REHEAT COIL OUTLET WATER NODE,Water,1
 Node,424,ZONE OFFICE WHOLEBUILDING - LG OFFICE B END_A - STORY GROUND REHEAT COIL INLET WATER NODE,Water,1
 Node,425,ZONE OFFICE WHOLEBUILDING - LG OFFICE B END_A - STORY GROUND REHEAT COIL OUTLET WATER NODE,Water,1
 Node,426,ZONE OFFICE WHOLEBUILDING - LG OFFICE C  - STORY GROUND REHEAT COIL INLET WATER NODE,Water,1
 Node,427,ZONE OFFICE WHOLEBUILDING - LG OFFICE C  - STORY GROUND REHEAT COIL OUTLET WATER NODE,Water,1
 Node,428,ZONE OFFICE WHOLEBUILDING - LG OFFICE C END_A - STORY GROUND REHEAT COIL INLET WATER NODE,Water,1
 Node,429,ZONE OFFICE WHOLEBUILDING - LG OFFICE C END_A - STORY GROUND REHEAT COIL OUTLET WATER NODE,Water,1
 Node,430,9 ZONE VAV MAIN HTG COIL INLET WATER NODE,Water,2
 Node,431,9 ZONE VAV MAIN HTG COIL OUTLET WATER NODE,Water,1
 Node,432,ZONE OFFICE WHOLEBUILDING - LG OFFICE A  - STORY MID REHEAT COIL INLET WATER NODE,Water,1
 Node,433,ZONE OFFICE WHOLEBUILDING - LG OFFICE A  - STORY MID REHEAT COIL OUTLET WATER NODE,Water,1
 Node,434,ZONE OFFICE WHOLEBUILDING - LG OFFICE A END_A - STORY MID REHEAT COIL INLET WATER NODE,Water,1
 Node,435,ZONE OFFICE WHOLEBUILDING - LG OFFICE A END_A - STORY MID REHEAT COIL OUTLET WATER NODE,Water,1
 Node,436,ZONE OFFICE WHOLEBUILDING - LG OFFICE A END_B - STORY MID REHEAT COIL INLET WATER NODE,Water,1
 Node,437,ZONE OFFICE WHOLEBUILDING - LG OFFICE A END_B - STORY MID REHEAT COIL OUTLET WATER NODE,Water,1
 Node,438,ZONE OFFICE WHOLEBUILDING - LG OFFICE B  - STORY MID REHEAT COIL INLET WATER NODE,Water,1
 Node,439,ZONE OFFICE WHOLEBUILDING - LG OFFICE B  - STORY MID REHEAT COIL OUTLET WATER NODE,Water,1
 Node,440,ZONE OFFICE WHOLEBUILDING - LG OFFICE B END_A - STORY MID REHEAT COIL INLET WATER NODE,Water,1
 Node,441,ZONE OFFICE WHOLEBUILDING - LG OFFICE B END_A - STORY MID REHEAT COIL OUTLET WATER NODE,Water,1
 Node,442,ZONE OFFICE WHOLEBUILDING - LG OFFICE B END_B - STORY MID REHEAT COIL INLET WATER NODE,Water,1
 Node,443,ZONE OFFICE WHOLEBUILDING - LG OFFICE B END_B - STORY MID REHEAT COIL OUTLET WATER NODE,Water,1
 Node,444,ZONE OFFICE WHOLEBUILDING - LG OFFICE C  - STORY MID REHEAT COIL INLET WATER NODE,Water,1
 Node,445,ZONE OFFICE WHOLEBUILDING - LG OFFICE C  - STORY MID REHEAT COIL OUTLET WATER NODE,Water,1
 Node,446,ZONE OFFICE WHOLEBUILDING - LG OFFICE C END_A - STORY MID REHEAT COIL INLET WATER NODE,Water,1
 Node,447,ZONE OFFICE WHOLEBUILDING - LG OFFICE C END_A - STORY MID REHEAT COIL OUTLET WATER NODE,Water,1
 Node,448,ZONE OFFICE WHOLEBUILDING - LG OFFICE C END_B - STORY MID REHEAT COIL INLET WATER NODE,Water,1
 Node,449,ZONE OFFICE WHOLEBUILDING - LG OFFICE C END_B - STORY MID REHEAT COIL OUTLET WATER NODE,Water,1
 Node,450,9 ZONE VAV 1 MAIN HTG COIL INLET WATER NODE,Water,2
 Node,451,9 ZONE VAV 1 MAIN HTG COIL OUTLET WATER NODE,Water,1
 Node,452,ZONE OFFICE WHOLEBUILDING - LG OFFICE A  - STORY MID10 REHEAT COIL INLET WATER NODE,Water,1
 Node,453,ZONE OFFICE WHOLEBUILDING - LG OFFICE A  - STORY MID10 REHEAT COIL OUTLET WATER NODE,Water,1
 Node,454,ZONE OFFICE WHOLEBUILDING - LG OFFICE A END_A - STORY MID10 REHEAT COIL INLET WATER NODE,Water,1
 Node,455,ZONE OFFICE WHOLEBUILDING - LG OFFICE A END_A - STORY MID10 REHEAT COIL OUTLET WATER NODE,Water,1
 Node,456,ZONE OFFICE WHOLEBUILDING - LG OFFICE A END_B - STORY MID10 REHEAT COIL INLET WATER NODE,Water,1
 Node,457,ZONE OFFICE WHOLEBUILDING - LG OFFICE A END_B - STORY MID10 REHEAT COIL OUTLET WATER NODE,Water,1
 Node,458,ZONE OFFICE WHOLEBUILDING - LG OFFICE B  - STORY MID10 REHEAT COIL INLET WATER NODE,Water,1
 Node,459,ZONE OFFICE WHOLEBUILDING - LG OFFICE B  - STORY MID10 REHEAT COIL OUTLET WATER NODE,Water,1
 Node,460,ZONE OFFICE WHOLEBUILDING - LG OFFICE B END_A - STORY MID10 REHEAT COIL INLET WATER NODE,Water,1
 Node,461,ZONE OFFICE WHOLEBUILDING - LG OFFICE B END_A - STORY MID10 REHEAT COIL OUTLET WATER NODE,Water,1
 Node,462,ZONE OFFICE WHOLEBUILDING - LG OFFICE B END_B - STORY MID10 REHEAT COIL INLET WATER NODE,Water,1
 Node,463,ZONE OFFICE WHOLEBUILDING - LG OFFICE B END_B - STORY MID10 REHEAT COIL OUTLET WATER NODE,Water,1
 Node,464,ZONE OFFICE WHOLEBUILDING - LG OFFICE C  - STORY MID10 REHEAT COIL INLET WATER NODE,Water,1
 Node,465,ZONE OFFICE WHOLEBUILDING - LG OFFICE C  - STORY MID10 REHEAT COIL OUTLET WATER NODE,Water,1
 Node,466,ZONE OFFICE WHOLEBUILDING - LG OFFICE C END_A - STORY MID10 REHEAT COIL INLET WATER NODE,Water,1
 Node,467,ZONE OFFICE WHOLEBUILDING - LG OFFICE C END_A - STORY MID10 REHEAT COIL OUTLET WATER NODE,Water,1
 Node,468,ZONE OFFICE WHOLEBUILDING - LG OFFICE C END_B - STORY MID10 REHEAT COIL INLET WATER NODE,Water,1
 Node,469,ZONE OFFICE WHOLEBUILDING - LG OFFICE C END_B - STORY MID10 REHEAT COIL OUTLET WATER NODE,Water,1
 Node,470,9 ZONE VAV 2 MAIN HTG COIL INLET WATER NODE,Water,2
 Node,471,9 ZONE VAV 2 MAIN HTG COIL OUTLET WATER NODE,Water,1
 Node,472,ZONE OFFICE WHOLEBUILDING - LG OFFICE A  - STORY MID11 REHEAT COIL INLET WATER NODE,Water,1
 Node,473,ZONE OFFICE WHOLEBUILDING - LG OFFICE A  - STORY MID11 REHEAT COIL OUTLET WATER NODE,Water,1
 Node,474,ZONE OFFICE WHOLEBUILDING - LG OFFICE A END_A - STORY MID11 REHEAT COIL INLET WATER NODE,Water,1
 Node,475,ZONE OFFICE WHOLEBUILDING - LG OFFICE A END_A - STORY MID11 REHEAT COIL OUTLET WATER NODE,Water,1
 Node,476,ZONE OFFICE WHOLEBUILDING - LG OFFICE A END_B - STORY MID11 REHEAT COIL INLET WATER NODE,Water,1
 Node,477,ZONE OFFICE WHOLEBUILDING - LG OFFICE A END_B - STORY MID11 REHEAT COIL OUTLET WATER NODE,Water,1
 Node,478,ZONE OFFICE WHOLEBUILDING - LG OFFICE B  - STORY MID11 REHEAT COIL INLET WATER NODE,Water,1
 Node,479,ZONE OFFICE WHOLEBUILDING - LG OFFICE B  - STORY MID11 REHEAT COIL OUTLET WATER NODE,Water,1
 Node,480,ZONE OFFICE WHOLEBUILDING - LG OFFICE B END_A - STORY MID11 REHEAT COIL INLET WATER NODE,Water,1
 Node,481,ZONE OFFICE WHOLEBUILDING - LG OFFICE B END_A - STORY MID11 REHEAT COIL OUTLET WATER NODE,Water,1
 Node,482,ZONE OFFICE WHOLEBUILDING - LG OFFICE B END_B - STORY MID11 REHEAT COIL INLET WATER NODE,Water,1
 Node,483,ZONE OFFICE WHOLEBUILDING - LG OFFICE B END_B - STORY MID11 REHEAT COIL OUTLET WATER NODE,Water,1
 Node,484,ZONE OFFICE WHOLEBUILDING - LG OFFICE C  - STORY MID11 REHEAT COIL INLET WATER NODE,Water,1
 Node,485,ZONE OFFICE WHOLEBUILDING - LG OFFICE C  - STORY MID11 REHEAT COIL OUTLET WATER NODE,Water,1
 Node,486,ZONE OFFICE WHOLEBUILDING - LG OFFICE C END_A - STORY MID11 REHEAT COIL INLET WATER NODE,Water,1
 Node,487,ZONE OFFICE WHOLEBUILDING - LG OFFICE C END_A - STORY MID11 REHEAT COIL OUTLET WATER NODE,Water,1
 Node,488,ZONE OFFICE WHOLEBUILDING - LG OFFICE C END_B - STORY MID11 REHEAT COIL INLET WATER NODE,Water,1
 Node,489,ZONE OFFICE WHOLEBUILDING - LG OFFICE C END_B - STORY MID11 REHEAT COIL OUTLET WATER NODE,Water,1
 Node,490,9 ZONE VAV 3 MAIN HTG COIL INLET WATER NODE,Water,2
 Node,491,9 ZONE VAV 3 MAIN HTG COIL OUTLET WATER NODE,Water,1
 Node,492,ZONE OFFICE WHOLEBUILDING - LG OFFICE A  - STORY MID2 REHEAT COIL INLET WATER NODE,Water,1
 Node,493,ZONE OFFICE WHOLEBUILDING - LG OFFICE A  - STORY MID2 REHEAT COIL OUTLET WATER NODE,Water,1
 Node,494,ZONE OFFICE WHOLEBUILDING - LG OFFICE A END_A - STORY MID2 REHEAT COIL INLET WATER NODE,Water,1
 Node,495,ZONE OFFICE WHOLEBUILDING - LG OFFICE A END_A - STORY MID2 REHEAT COIL OUTLET WATER NODE,Water,1
 Node,496,ZONE OFFICE WHOLEBUILDING - LG OFFICE A END_B - STORY MID2 REHEAT COIL INLET WATER NODE,Water,1
 Node,497,ZONE OFFICE WHOLEBUILDING - LG OFFICE A END_B - STORY MID2 REHEAT COIL OUTLET WATER NODE,Water,1
 Node,498,ZONE OFFICE WHOLEBUILDING - LG OFFICE B  - STORY MID2 REHEAT COIL INLET WATER NODE,Water,1
 Node,499,ZONE OFFICE WHOLEBUILDING - LG OFFICE B  - STORY MID2 REHEAT COIL OUTLET WATER NODE,Water,1
 Node,500,ZONE OFFICE WHOLEBUILDING - LG OFFICE B END_A - STORY MID2 REHEAT COIL INLET WATER NODE,Water,1
 Node,501,ZONE OFFICE WHOLEBUILDING - LG OFFICE B END_A - STORY MID2 REHEAT COIL OUTLET WATER NODE,Water,1
 Node,502,ZONE OFFICE WHOLEBUILDING - LG OFFICE B END_B - STORY MID2 REHEAT COIL INLET WATER NODE,Water,1
 Node,503,ZONE OFFICE WHOLEBUILDING - LG OFFICE B END_B - STORY MID2 REHEAT COIL OUTLET WATER NODE,Water,1
 Node,504,ZONE OFFICE WHOLEBUILDING - LG OFFICE C  - STORY MID2 REHEAT COIL INLET WATER NODE,Water,1
 Node,505,ZONE OFFICE WHOLEBUILDING - LG OFFICE C  - STORY MID2 REHEAT COIL OUTLET WATER NODE,Water,1
 Node,506,ZONE OFFICE WHOLEBUILDING - LG OFFICE C END_A - STORY MID2 REHEAT COIL INLET WATER NODE,Water,1
 Node,507,ZONE OFFICE WHOLEBUILDING - LG OFFICE C END_A - STORY MID2 REHEAT COIL OUTLET WATER NODE,Water,1
 Node,508,ZONE OFFICE WHOLEBUILDING - LG OFFICE C END_B - STORY MID2 REHEAT COIL INLET WATER NODE,Water,1
 Node,509,ZONE OFFICE WHOLEBUILDING - LG OFFICE C END_B - STORY MID2 REHEAT COIL OUTLET WATER NODE,Water,1
 Node,510,9 ZONE VAV 4 MAIN HTG COIL INLET WATER NODE,Water,2
 Node,511,9 ZONE VAV 4 MAIN HTG COIL OUTLET WATER NODE,Water,1
 Node,512,ZONE OFFICE WHOLEBUILDING - LG OFFICE A  - STORY MID3 REHEAT COIL INLET WATER NODE,Water,1
 Node,513,ZONE OFFICE WHOLEBUILDING - LG OFFICE A  - STORY MID3 REHEAT COIL OUTLET WATER NODE,Water,1
 Node,514,ZONE OFFICE WHOLEBUILDING - LG OFFICE A END_A - STORY MID3 REHEAT COIL INLET WATER NODE,Water,1
 Node,515,ZONE OFFICE WHOLEBUILDING - LG OFFICE A END_A - STORY MID3 REHEAT COIL OUTLET WATER NODE,Water,1
 Node,516,ZONE OFFICE WHOLEBUILDING - LG OFFICE A END_B - STORY MID3 REHEAT COIL INLET WATER NODE,Water,1
 Node,517,ZONE OFFICE WHOLEBUILDING - LG OFFICE A END_B - STORY MID3 REHEAT COIL OUTLET WATER NODE,Water,1
 Node,518,ZONE OFFICE WHOLEBUILDING - LG OFFICE B  - STORY MID3 REHEAT COIL INLET WATER NODE,Water,1
 Node,519,ZONE OFFICE WHOLEBUILDING - LG OFFICE B  - STORY MID3 REHEAT COIL OUTLET WATER NODE,Water,1
 Node,520,ZONE OFFICE WHOLEBUILDING - LG OFFICE B END_A - STORY MID3 REHEAT COIL INLET WATER NODE,Water,1
 Node,521,ZONE OFFICE WHOLEBUILDING - LG OFFICE B END_A - STORY MID3 REHEAT COIL OUTLET WATER NODE,Water,1
 Node,522,ZONE OFFICE WHOLEBUILDING - LG OFFICE B END_B - STORY MID3 REHEAT COIL INLET WATER NODE,Water,1
 Node,523,ZONE OFFICE WHOLEBUILDING - LG OFFICE B END_B - STORY MID3 REHEAT COIL OUTLET WATER NODE,Water,1
 Node,524,ZONE OFFICE WHOLEBUILDING - LG OFFICE C  - STORY MID3 REHEAT COIL INLET WATER NODE,Water,1
 Node,525,ZONE OFFICE WHOLEBUILDING - LG OFFICE C  - STORY MID3 REHEAT COIL OUTLET WATER NODE,Water,1
 Node,526,ZONE OFFICE WHOLEBUILDING - LG OFFICE C END_A - STORY MID3 REHEAT COIL INLET WATER NODE,Water,1
 Node,527,ZONE OFFICE WHOLEBUILDING - LG OFFICE C END_A - STORY MID3 REHEAT COIL OUTLET WATER NODE,Water,1
 Node,528,ZONE OFFICE WHOLEBUILDING - LG OFFICE C END_B - STORY MID3 REHEAT COIL INLET WATER NODE,Water,1
 Node,529,ZONE OFFICE WHOLEBUILDING - LG OFFICE C END_B - STORY MID3 REHEAT COIL OUTLET WATER NODE,Water,1
 Node,530,9 ZONE VAV 5 MAIN HTG COIL INLET WATER NODE,Water,2
 Node,531,9 ZONE VAV 5 MAIN HTG COIL OUTLET WATER NODE,Water,1
 Node,532,ZONE OFFICE WHOLEBUILDING - LG OFFICE A  - STORY MID4 REHEAT COIL INLET WATER NODE,Water,1
 Node,533,ZONE OFFICE WHOLEBUILDING - LG OFFICE A  - STORY MID4 REHEAT COIL OUTLET WATER NODE,Water,1
 Node,534,ZONE OFFICE WHOLEBUILDING - LG OFFICE A END_A - STORY MID4 REHEAT COIL INLET WATER NODE,Water,1
 Node,535,ZONE OFFICE WHOLEBUILDING - LG OFFICE A END_A - STORY MID4 REHEAT COIL OUTLET WATER NODE,Water,1
 Node,536,ZONE OFFICE WHOLEBUILDING - LG OFFICE A END_B - STORY MID4 REHEAT COIL INLET WATER NODE,Water,1
 Node,537,ZONE OFFICE WHOLEBUILDING - LG OFFICE A END_B - STORY MID4 REHEAT COIL OUTLET WATER NODE,Water,1
 Node,538,ZONE OFFICE WHOLEBUILDING - LG OFFICE B  - STORY MID4 REHEAT COIL INLET WATER NODE,Water,1
 Node,539,ZONE OFFICE WHOLEBUILDING - LG OFFICE B  - STORY MID4 REHEAT COIL OUTLET WATER NODE,Water,1
 Node,540,ZONE OFFICE WHOLEBUILDING - LG OFFICE B END_A - STORY MID4 REHEAT COIL INLET WATER NODE,Water,1
 Node,541,ZONE OFFICE WHOLEBUILDING - LG OFFICE B END_A - STORY MID4 REHEAT COIL OUTLET WATER NODE,Water,1
 Node,542,ZONE OFFICE WHOLEBUILDING - LG OFFICE B END_B - STORY MID4 REHEAT COIL INLET WATER NODE,Water,1
 Node,543,ZONE OFFICE WHOLEBUILDING - LG OFFICE B END_B - STORY MID4 REHEAT COIL OUTLET WATER NODE,Water,1
 Node,544,ZONE OFFICE WHOLEBUILDING - LG OFFICE C  - STORY MID4 REHEAT COIL INLET WATER NODE,Water,1
 Node,545,ZONE OFFICE WHOLEBUILDING - LG OFFICE C  - STORY MID4 REHEAT COIL OUTLET WATER NODE,Water,1
 Node,546,ZONE OFFICE WHOLEBUILDING - LG OFFICE C END_A - STORY MID4 REHEAT COIL INLET WATER NODE,Water,1
 Node,547,ZONE OFFICE WHOLEBUILDING - LG OFFICE C END_A - STORY MID4 REHEAT COIL OUTLET WATER NODE,Water,1
 Node,548,ZONE OFFICE WHOLEBUILDING - LG OFFICE C END_B - STORY MID4 REHEAT COIL INLET WATER NODE,Water,1
 Node,549,ZONE OFFICE WHOLEBUILDING - LG OFFICE C END_B - STORY MID4 REHEAT COIL OUTLET WATER NODE,Water,1
 Node,550,9 ZONE VAV 6 MAIN HTG COIL INLET WATER NODE,Water,2
 Node,551,9 ZONE VAV 6 MAIN HTG COIL OUTLET WATER NODE,Water,1
 Node,552,ZONE OFFICE WHOLEBUILDING - LG OFFICE A  - STORY MID5 REHEAT COIL INLET WATER NODE,Water,1
 Node,553,ZONE OFFICE WHOLEBUILDING - LG OFFICE A  - STORY MID5 REHEAT COIL OUTLET WATER NODE,Water,1
 Node,554,ZONE OFFICE WHOLEBUILDING - LG OFFICE A END_A - STORY MID5 REHEAT COIL INLET WATER NODE,Water,1
 Node,555,ZONE OFFICE WHOLEBUILDING - LG OFFICE A END_A - STORY MID5 REHEAT COIL OUTLET WATER NODE,Water,1
 Node,556,ZONE OFFICE WHOLEBUILDING - LG OFFICE A END_B - STORY MID5 REHEAT COIL INLET WATER NODE,Water,1
 Node,557,ZONE OFFICE WHOLEBUILDING - LG OFFICE A END_B - STORY MID5 REHEAT COIL OUTLET WATER NODE,Water,1
 Node,558,ZONE OFFICE WHOLEBUILDING - LG OFFICE B  - STORY MID5 REHEAT COIL INLET WATER NODE,Water,1
 Node,559,ZONE OFFICE WHOLEBUILDING - LG OFFICE B  - STORY MID5 REHEAT COIL OUTLET WATER NODE,Water,1
 Node,560,ZONE OFFICE WHOLEBUILDING - LG OFFICE B END_A - STORY MID5 REHEAT COIL INLET WATER NODE,Water,1
 Node,561,ZONE OFFICE WHOLEBUILDING - LG OFFICE B END_A - STORY MID5 REHEAT COIL OUTLET WATER NODE,Water,1
 Node,562,ZONE OFFICE WHOLEBUILDING - LG OFFICE B END_B - STORY MID5 REHEAT COIL INLET WATER NODE,Water,1
 Node,563,ZONE OFFICE WHOLEBUILDING - LG OFFICE B END_B - STORY MID5 REHEAT COIL OUTLET WATER NODE,Water,1
 Node,564,ZONE OFFICE WHOLEBUILDING - LG OFFICE C  - STORY MID5 REHEAT COIL INLET WATER NODE,Water,1
 Node,565,ZONE OFFICE WHOLEBUILDING - LG OFFICE C  - STORY MID5 REHEAT COIL OUTLET WATER NODE,Water,1
 Node,566,ZONE OFFICE WHOLEBUILDING - LG OFFICE C END_A - STORY MID5 REHEAT COIL INLET WATER NODE,Water,1
 Node,567,ZONE OFFICE WHOLEBUILDING - LG OFFICE C END_A - STORY MID5 REHEAT COIL OUTLET WATER NODE,Water,1
 Node,568,ZONE OFFICE WHOLEBUILDING - LG OFFICE C END_B - STORY MID5 REHEAT COIL INLET WATER NODE,Water,1
 Node,569,ZONE OFFICE WHOLEBUILDING - LG OFFICE C END_B - STORY MID5 REHEAT COIL OUTLET WATER NODE,Water,1
 Node,570,9 ZONE VAV 7 MAIN HTG COIL INLET WATER NODE,Water,2
 Node,571,9 ZONE VAV 7 MAIN HTG COIL OUTLET WATER NODE,Water,1
 Node,572,ZONE OFFICE WHOLEBUILDING - LG OFFICE A  - STORY MID6 REHEAT COIL INLET WATER NODE,Water,1
 Node,573,ZONE OFFICE WHOLEBUILDING - LG OFFICE A  - STORY MID6 REHEAT COIL OUTLET WATER NODE,Water,1
 Node,574,ZONE OFFICE WHOLEBUILDING - LG OFFICE A END_A - STORY MID6 REHEAT COIL INLET WATER NODE,Water,1
 Node,575,ZONE OFFICE WHOLEBUILDING - LG OFFICE A END_A - STORY MID6 REHEAT COIL OUTLET WATER NODE,Water,1
 Node,576,ZONE OFFICE WHOLEBUILDING - LG OFFICE A END_B - STORY MID6 REHEAT COIL INLET WATER NODE,Water,1
 Node,577,ZONE OFFICE WHOLEBUILDING - LG OFFICE A END_B - STORY MID6 REHEAT COIL OUTLET WATER NODE,Water,1
 Node,578,ZONE OFFICE WHOLEBUILDING - LG OFFICE B  - STORY MID6 REHEAT COIL INLET WATER NODE,Water,1
 Node,579,ZONE OFFICE WHOLEBUILDING - LG OFFICE B  - STORY MID6 REHEAT COIL OUTLET WATER NODE,Water,1
 Node,580,ZONE OFFICE WHOLEBUILDING - LG OFFICE B END_A - STORY MID6 REHEAT COIL INLET WATER NODE,Water,1
 Node,581,ZONE OFFICE WHOLEBUILDING - LG OFFICE B END_A - STORY MID6 REHEAT COIL OUTLET WATER NODE,Water,1
 Node,582,ZONE OFFICE WHOLEBUILDING - LG OFFICE B END_B - STORY MID6 REHEAT COIL INLET WATER NODE,Water,1
 Node,583,ZONE OFFICE WHOLEBUILDING - LG OFFICE B END_B - STORY MID6 REHEAT COIL OUTLET WATER NODE,Water,1
 Node,584,ZONE OFFICE WHOLEBUILDING - LG OFFICE C  - STORY MID6 REHEAT COIL INLET WATER NODE,Water,1
 Node,585,ZONE OFFICE WHOLEBUILDING - LG OFFICE C  - STORY MID6 REHEAT COIL OUTLET WATER NODE,Water,1
 Node,586,ZONE OFFICE WHOLEBUILDING - LG OFFICE C END_A - STORY MID6 REHEAT COIL INLET WATER NODE,Water,1
 Node,587,ZONE OFFICE WHOLEBUILDING - LG OFFICE C END_A - STORY MID6 REHEAT COIL OUTLET WATER NODE,Water,1
 Node,588,ZONE OFFICE WHOLEBUILDING - LG OFFICE C END_B - STORY MID6 REHEAT COIL INLET WATER NODE,Water,1
 Node,589,ZONE OFFICE WHOLEBUILDING - LG OFFICE C END_B - STORY MID6 REHEAT COIL OUTLET WATER NODE,Water,1
 Node,590,9 ZONE VAV 8 MAIN HTG COIL INLET WATER NODE,Water,2
 Node,591,9 ZONE VAV 8 MAIN HTG COIL OUTLET WATER NODE,Water,1
 Node,592,ZONE OFFICE WHOLEBUILDING - LG OFFICE A  - STORY MID7 REHEAT COIL INLET WATER NODE,Water,1
 Node,593,ZONE OFFICE WHOLEBUILDING - LG OFFICE A  - STORY MID7 REHEAT COIL OUTLET WATER NODE,Water,1
 Node,594,ZONE OFFICE WHOLEBUILDING - LG OFFICE A END_A - STORY MID7 REHEAT COIL INLET WATER NODE,Water,1
 Node,595,ZONE OFFICE WHOLEBUILDING - LG OFFICE A END_A - STORY MID7 REHEAT COIL OUTLET WATER NODE,Water,1
 Node,596,ZONE OFFICE WHOLEBUILDING - LG OFFICE A END_B - STORY MID7 REHEAT COIL INLET WATER NODE,Water,1
 Node,597,ZONE OFFICE WHOLEBUILDING - LG OFFICE A END_B - STORY MID7 REHEAT COIL OUTLET WATER NODE,Water,1
 Node,598,ZONE OFFICE WHOLEBUILDING - LG OFFICE B  - STORY MID7 REHEAT COIL INLET WATER NODE,Water,1
 Node,599,ZONE OFFICE WHOLEBUILDING - LG OFFICE B  - STORY MID7 REHEAT COIL OUTLET WATER NODE,Water,1
 Node,600,ZONE OFFICE WHOLEBUILDING - LG OFFICE B END_A - STORY MID7 REHEAT COIL INLET WATER NODE,Water,1
 Node,601,ZONE OFFICE WHOLEBUILDING - LG OFFICE B END_A - STORY MID7 REHEAT COIL OUTLET WATER NODE,Water,1
 Node,602,ZONE OFFICE WHOLEBUILDING - LG OFFICE B END_B - STORY MID7 REHEAT COIL INLET WATER NODE,Water,1
 Node,603,ZONE OFFICE WHOLEBUILDING - LG OFFICE B END_B - STORY MID7 REHEAT COIL OUTLET WATER NODE,Water,1
 Node,604,ZONE OFFICE WHOLEBUILDING - LG OFFICE C  - STORY MID7 REHEAT COIL INLET WATER NODE,Water,1
 Node,605,ZONE OFFICE WHOLEBUILDING - LG OFFICE C  - STORY MID7 REHEAT COIL OUTLET WATER NODE,Water,1
 Node,606,ZONE OFFICE WHOLEBUILDING - LG OFFICE C END_A - STORY MID7 REHEAT COIL INLET WATER NODE,Water,1
 Node,607,ZONE OFFICE WHOLEBUILDING - LG OFFICE C END_A - STORY MID7 REHEAT COIL OUTLET WATER NODE,Water,1
 Node,608,ZONE OFFICE WHOLEBUILDING - LG OFFICE C END_B - STORY MID7 REHEAT COIL INLET WATER NODE,Water,1
 Node,609,ZONE OFFICE WHOLEBUILDING - LG OFFICE C END_B - STORY MID7 REHEAT COIL OUTLET WATER NODE,Water,1
 Node,610,9 ZONE VAV 9 MAIN HTG COIL INLET WATER NODE,Water,2
 Node,611,9 ZONE VAV 9 MAIN HTG COIL OUTLET WATER NODE,Water,1
 Node,612,ZONE OFFICE WHOLEBUILDING - LG OFFICE A  - STORY MID8 REHEAT COIL INLET WATER NODE,Water,1
 Node,613,ZONE OFFICE WHOLEBUILDING - LG OFFICE A  - STORY MID8 REHEAT COIL OUTLET WATER NODE,Water,1
 Node,614,ZONE OFFICE WHOLEBUILDING - LG OFFICE A END_A - STORY MID8 REHEAT COIL INLET WATER NODE,Water,1
 Node,615,ZONE OFFICE WHOLEBUILDING - LG OFFICE A END_A - STORY MID8 REHEAT COIL OUTLET WATER NODE,Water,1
 Node,616,ZONE OFFICE WHOLEBUILDING - LG OFFICE A END_B - STORY MID8 REHEAT COIL INLET WATER NODE,Water,1
 Node,617,ZONE OFFICE WHOLEBUILDING - LG OFFICE A END_B - STORY MID8 REHEAT COIL OUTLET WATER NODE,Water,1
 Node,618,ZONE OFFICE WHOLEBUILDING - LG OFFICE B  - STORY MID8 REHEAT COIL INLET WATER NODE,Water,1
 Node,619,ZONE OFFICE WHOLEBUILDING - LG OFFICE B  - STORY MID8 REHEAT COIL OUTLET WATER NODE,Water,1
 Node,620,ZONE OFFICE WHOLEBUILDING - LG OFFICE B END_A - STORY MID8 REHEAT COIL INLET WATER NODE,Water,1
 Node,621,ZONE OFFICE WHOLEBUILDING - LG OFFICE B END_A - STORY MID8 REHEAT COIL OUTLET WATER NODE,Water,1
 Node,622,ZONE OFFICE WHOLEBUILDING - LG OFFICE B END_B - STORY MID8 REHEAT COIL INLET WATER NODE,Water,1
 Node,623,ZONE OFFICE WHOLEBUILDING - LG OFFICE B END_B - STORY MID8 REHEAT COIL OUTLET WATER NODE,Water,1
 Node,624,ZONE OFFICE WHOLEBUILDING - LG OFFICE C  - STORY MID8 REHEAT COIL INLET WATER NODE,Water,1
 Node,625,ZONE OFFICE WHOLEBUILDING - LG OFFICE C  - STORY MID8 REHEAT COIL OUTLET WATER NODE,Water,1
 Node,626,ZONE OFFICE WHOLEBUILDING - LG OFFICE C END_A - STORY MID8 REHEAT COIL INLET WATER NODE,Water,1
 Node,627,ZONE OFFICE WHOLEBUILDING - LG OFFICE C END_A - STORY MID8 REHEAT COIL OUTLET WATER NODE,Water,1
 Node,628,ZONE OFFICE WHOLEBUILDING - LG OFFICE C END_B - STORY MID8 REHEAT COIL INLET WATER NODE,Water,1
 Node,629,ZONE OFFICE WHOLEBUILDING - LG OFFICE C END_B - STORY MID8 REHEAT COIL OUTLET WATER NODE,Water,1
 Node,630,9 ZONE VAV 10 MAIN HTG COIL INLET WATER NODE,Water,2
 Node,631,9 ZONE VAV 10 MAIN HTG COIL OUTLET WATER NODE,Water,1
 Node,632,ZONE OFFICE WHOLEBUILDING - LG OFFICE A  - STORY MID9 REHEAT COIL INLET WATER NODE,Water,1
 Node,633,ZONE OFFICE WHOLEBUILDING - LG OFFICE A  - STORY MID9 REHEAT COIL OUTLET WATER NODE,Water,1
 Node,634,ZONE OFFICE WHOLEBUILDING - LG OFFICE A END_A - STORY MID9 REHEAT COIL INLET WATER NODE,Water,1
 Node,635,ZONE OFFICE WHOLEBUILDING - LG OFFICE A END_A - STORY MID9 REHEAT COIL OUTLET WATER NODE,Water,1
 Node,636,ZONE OFFICE WHOLEBUILDING - LG OFFICE A END_B - STORY MID9 REHEAT COIL INLET WATER NODE,Water,1
 Node,637,ZONE OFFICE WHOLEBUILDING - LG OFFICE A END_B - STORY MID9 REHEAT COIL OUTLET WATER NODE,Water,1
 Node,638,ZONE OFFICE WHOLEBUILDING - LG OFFICE B  - STORY MID9 REHEAT COIL INLET WATER NODE,Water,1
 Node,639,ZONE OFFICE WHOLEBUILDING - LG OFFICE B  - STORY MID9 REHEAT COIL OUTLET WATER NODE,Water,1
 Node,640,ZONE OFFICE WHOLEBUILDING - LG OFFICE B END_A - STORY MID9 REHEAT COIL INLET WATER NODE,Water,1
 Node,641,ZONE OFFICE WHOLEBUILDING - LG OFFICE B END_A - STORY MID9 REHEAT COIL OUTLET WATER NODE,Water,1
 Node,642,ZONE OFFICE WHOLEBUILDING - LG OFFICE B END_B - STORY MID9 REHEAT COIL INLET WATER NODE,Water,1
 Node,643,ZONE OFFICE WHOLEBUILDING - LG OFFICE B END_B - STORY MID9 REHEAT COIL OUTLET WATER NODE,Water,1
 Node,644,ZONE OFFICE WHOLEBUILDING - LG OFFICE C  - STORY MID9 REHEAT COIL INLET WATER NODE,Water,1
 Node,645,ZONE OFFICE WHOLEBUILDING - LG OFFICE C  - STORY MID9 REHEAT COIL OUTLET WATER NODE,Water,1
 Node,646,ZONE OFFICE WHOLEBUILDING - LG OFFICE C END_A - STORY MID9 REHEAT COIL INLET WATER NODE,Water,1
 Node,647,ZONE OFFICE WHOLEBUILDING - LG OFFICE C END_A - STORY MID9 REHEAT COIL OUTLET WATER NODE,Water,1
 Node,648,ZONE OFFICE WHOLEBUILDING - LG OFFICE C END_B - STORY MID9 REHEAT COIL INLET WATER NODE,Water,1
 Node,649,ZONE OFFICE WHOLEBUILDING - LG OFFICE C END_B - STORY MID9 REHEAT COIL OUTLET WATER NODE,Water,1
 Node,650,9 ZONE VAV 11 MAIN HTG COIL INLET WATER NODE,Water,2
 Node,651,9 ZONE VAV 11 MAIN HTG COIL OUTLET WATER NODE,Water,1
 Node,652,ZONE OFFICE WHOLEBUILDING - LG OFFICE A  - STORY TOP REHEAT COIL INLET WATER NODE,Water,1
 Node,653,ZONE OFFICE WHOLEBUILDING - LG OFFICE A  - STORY TOP REHEAT COIL OUTLET WATER NODE,Water,1
 Node,654,ZONE OFFICE WHOLEBUILDING - LG OFFICE A END_A - STORY TOP REHEAT COIL INLET WATER NODE,Water,1
 Node,655,ZONE OFFICE WHOLEBUILDING - LG OFFICE A END_A - STORY TOP REHEAT COIL OUTLET WATER NODE,Water,1
 Node,656,ZONE OFFICE WHOLEBUILDING - LG OFFICE A END_B - STORY TOP REHEAT COIL INLET WATER NODE,Water,1
 Node,657,ZONE OFFICE WHOLEBUILDING - LG OFFICE A END_B - STORY TOP REHEAT COIL OUTLET WATER NODE,Water,1
 Node,658,ZONE OFFICE WHOLEBUILDING - LG OFFICE B  - STORY TOP REHEAT COIL INLET WATER NODE,Water,1
 Node,659,ZONE OFFICE WHOLEBUILDING - LG OFFICE B  - STORY TOP REHEAT COIL OUTLET WATER NODE,Water,1
 Node,660,ZONE OFFICE WHOLEBUILDING - LG OFFICE B END_A - STORY TOP REHEAT COIL INLET WATER NODE,Water,1
 Node,661,ZONE OFFICE WHOLEBUILDING - LG OFFICE B END_A - STORY TOP REHEAT COIL OUTLET WATER NODE,Water,1
 Node,662,ZONE OFFICE WHOLEBUILDING - LG OFFICE B END_B - STORY TOP REHEAT COIL INLET WATER NODE,Water,1
 Node,663,ZONE OFFICE WHOLEBUILDING - LG OFFICE B END_B - STORY TOP REHEAT COIL OUTLET WATER NODE,Water,1
 Node,664,ZONE OFFICE WHOLEBUILDING - LG OFFICE C  - STORY TOP REHEAT COIL INLET WATER NODE,Water,1
 Node,665,ZONE OFFICE WHOLEBUILDING - LG OFFICE C  - STORY TOP REHEAT COIL OUTLET WATER NODE,Water,1
 Node,666,ZONE OFFICE WHOLEBUILDING - LG OFFICE C END_A - STORY TOP REHEAT COIL INLET WATER NODE,Water,1
 Node,667,ZONE OFFICE WHOLEBUILDING - LG OFFICE C END_A - STORY TOP REHEAT COIL OUTLET WATER NODE,Water,1
 Node,668,ZONE OFFICE WHOLEBUILDING - LG OFFICE C END_B - STORY TOP REHEAT COIL INLET WATER NODE,Water,1
 Node,669,ZONE OFFICE WHOLEBUILDING - LG OFFICE C END_B - STORY TOP REHEAT COIL OUTLET WATER NODE,Water,1
 Node,670,HOT WATER LOOP DEMAND BYPASS PIPE INLET NODE,Water,1
 Node,671,HOT WATER LOOP DEMAND BYPASS PIPE OUTLET NODE,Water,1
 Node,672,HOT WATER LOOP DEMAND OUTLET INLET WATER NODE,Water,1
 Node,673,HOT WATER LOOP DEMAND OUTLET NODE,Water,2
 Node,674,OFFICE SHARED SERVICE WATER LOOP SUPPLY INLET NODE,Water,2
 Node,675,OFFICE SHARED SERVICE WATER LOOP CIRCULATOR PUMP OUTLET WATER NODE,Water,1
 Node,676,40GAL ELECTRICITY WATER HEATER - 11KBTU/HR SUPPLY INLET WATER NODE,Water,1
 Node,677,40GAL ELECTRICITY WATER HEATER - 11KBTU/HR SUPPLY OUTLET WATER NODE,Water,1
 Node,678,PIPE ADIABATIC 1 INLET WATER NODE,Water,1
 Node,679,PIPE ADIABATIC 1 OUTLET WATER NODE,Water,1
 Node,680,PIPE ADIABATIC 3 INLET WATER NODE,Water,1
 Node,681,OFFICE SHARED SERVICE WATER LOOP SUPPLY OUTLET NODE,Water,4
 Node,682,OFFICE SHARED SERVICE WATER LOOP DEMAND INLET NODE,Water,2
 Node,683,OFFICE SHARED SERVICE WATER LOOP PIPE 454.8344622118296FT OUTLET WATER NODE,Water,1
 Node,684,PIPE ADIABATIC 2 INLET WATER NODE,Water,1
 Node,685,PIPE ADIABATIC 2 OUTLET WATER NODE,Water,1
 Node,686,OFFICE WHOLEBUILDING - LG OFFICE - COMSTOCK DOE REF PRE-1980 WUC 0.31GPM AT 140F INLET WATER NODE,Water,1
 Node,687,OFFICE WHOLEBUILDING - LG OFFICE - COMSTOCK DOE REF PRE-1980 WUC 0.31GPM AT 140F OUTLET WATER NODE,Water,1
 Node,688,OFFICE SHARED SERVICE WATER LOOP DEMAND BYPASS PIPE INLET NODE,Water,1
 Node,689,OFFICE SHARED SERVICE WATER LOOP DEMAND BYPASS PIPE OUTLET NODE,Water,1
 Node,690,PIPE ADIABATIC 4 INLET WATER NODE,Water,1
 Node,691,OFFICE SHARED SERVICE WATER LOOP DEMAND OUTLET NODE,Water,2
 Node,692,ZONE OFFICE OFFICELARGE DATA CENTER A  - STORY GROUND ZONE AIR NODE,Air,0
 Node,693,ZONE OFFICE OFFICELARGE DATA CENTER B  - STORY GROUND ZONE AIR NODE,Air,0
 Node,694,ZONE OFFICE OFFICELARGE DATA CENTER C  - STORY GROUND ZONE AIR NODE,Air,0
 Node,695,ZONE OFFICE OFFICELARGE MAIN DATA CENTER A  - STORY GROUND ZONE AIR NODE,Air,0
 Node,696,ZONE OFFICE OFFICELARGE MAIN DATA CENTER A END_B - STORY GROUND ZONE AIR NODE,Air,0
 Node,697,ZONE OFFICE OFFICELARGE MAIN DATA CENTER B  - STORY GROUND ZONE AIR NODE,Air,0
 Node,698,ZONE OFFICE OFFICELARGE MAIN DATA CENTER B END_B - STORY GROUND ZONE AIR NODE,Air,0
 Node,699,ZONE OFFICE OFFICELARGE MAIN DATA CENTER C  - STORY GROUND ZONE AIR NODE,Air,0
 Node,700,ZONE OFFICE OFFICELARGE MAIN DATA CENTER C END_B - STORY GROUND ZONE AIR NODE,Air,0
 Node,701,ZONE OFFICE WHOLEBUILDING - LG OFFICE A  - STORY GROUND ZONE AIR NODE,Air,0
 Node,702,ZONE OFFICE WHOLEBUILDING - LG OFFICE A  - STORY MID ZONE AIR NODE,Air,0
 Node,703,ZONE OFFICE WHOLEBUILDING - LG OFFICE A  - STORY MID10 ZONE AIR NODE,Air,0
 Node,704,ZONE OFFICE WHOLEBUILDING - LG OFFICE A  - STORY MID11 ZONE AIR NODE,Air,0
 Node,705,ZONE OFFICE WHOLEBUILDING - LG OFFICE A  - STORY MID2 ZONE AIR NODE,Air,0
 Node,706,ZONE OFFICE WHOLEBUILDING - LG OFFICE A  - STORY MID3 ZONE AIR NODE,Air,0
 Node,707,ZONE OFFICE WHOLEBUILDING - LG OFFICE A  - STORY MID4 ZONE AIR NODE,Air,0
 Node,708,ZONE OFFICE WHOLEBUILDING - LG OFFICE A  - STORY MID5 ZONE AIR NODE,Air,0
 Node,709,ZONE OFFICE WHOLEBUILDING - LG OFFICE A  - STORY MID6 ZONE AIR NODE,Air,0
 Node,710,ZONE OFFICE WHOLEBUILDING - LG OFFICE A  - STORY MID7 ZONE AIR NODE,Air,0
 Node,711,ZONE OFFICE WHOLEBUILDING - LG OFFICE A  - STORY MID8 ZONE AIR NODE,Air,0
 Node,712,ZONE OFFICE WHOLEBUILDING - LG OFFICE A  - STORY MID9 ZONE AIR NODE,Air,0
 Node,713,ZONE OFFICE WHOLEBUILDING - LG OFFICE A  - STORY TOP ZONE AIR NODE,Air,0
 Node,714,ZONE OFFICE WHOLEBUILDING - LG OFFICE A END_A - STORY GROUND ZONE AIR NODE,Air,0
 Node,715,ZONE OFFICE WHOLEBUILDING - LG OFFICE A END_A - STORY MID ZONE AIR NODE,Air,0
 Node,716,ZONE OFFICE WHOLEBUILDING - LG OFFICE A END_A - STORY MID10 ZONE AIR NODE,Air,0
 Node,717,ZONE OFFICE WHOLEBUILDING - LG OFFICE A END_A - STORY MID11 ZONE AIR NODE,Air,0
 Node,718,ZONE OFFICE WHOLEBUILDING - LG OFFICE A END_A - STORY MID2 ZONE AIR NODE,Air,0
 Node,719,ZONE OFFICE WHOLEBUILDING - LG OFFICE A END_A - STORY MID3 ZONE AIR NODE,Air,0
 Node,720,ZONE OFFICE WHOLEBUILDING - LG OFFICE A END_A - STORY MID4 ZONE AIR NODE,Air,0
 Node,721,ZONE OFFICE WHOLEBUILDING - LG OFFICE A END_A - STORY MID5 ZONE AIR NODE,Air,0
 Node,722,ZONE OFFICE WHOLEBUILDING - LG OFFICE A END_A - STORY MID6 ZONE AIR NODE,Air,0
 Node,723,ZONE OFFICE WHOLEBUILDING - LG OFFICE A END_A - STORY MID7 ZONE AIR NODE,Air,0
 Node,724,ZONE OFFICE WHOLEBUILDING - LG OFFICE A END_A - STORY MID8 ZONE AIR NODE,Air,0
 Node,725,ZONE OFFICE WHOLEBUILDING - LG OFFICE A END_A - STORY MID9 ZONE AIR NODE,Air,0
 Node,726,ZONE OFFICE WHOLEBUILDING - LG OFFICE A END_A - STORY TOP ZONE AIR NODE,Air,0
 Node,727,ZONE OFFICE WHOLEBUILDING - LG OFFICE A END_B - STORY MID ZONE AIR NODE,Air,0
 Node,728,ZONE OFFICE WHOLEBUILDING - LG OFFICE A END_B - STORY MID10 ZONE AIR NODE,Air,0
 Node,729,ZONE OFFICE WHOLEBUILDING - LG OFFICE A END_B - STORY MID11 ZONE AIR NODE,Air,0
 Node,730,ZONE OFFICE WHOLEBUILDING - LG OFFICE A END_B - STORY MID2 ZONE AIR NODE,Air,0
 Node,731,ZONE OFFICE WHOLEBUILDING - LG OFFICE A END_B - STORY MID3 ZONE AIR NODE,Air,0
 Node,732,ZONE OFFICE WHOLEBUILDING - LG OFFICE A END_B - STORY MID4 ZONE AIR NODE,Air,0
 Node,733,ZONE OFFICE WHOLEBUILDING - LG OFFICE A END_B - STORY MID5 ZONE AIR NODE,Air,0
 Node,734,ZONE OFFICE WHOLEBUILDING - LG OFFICE A END_B - STORY MID6 ZONE AIR NODE,Air,0
 Node,735,ZONE OFFICE WHOLEBUILDING - LG OFFICE A END_B - STORY MID7 ZONE AIR NODE,Air,0
 Node,736,ZONE OFFICE WHOLEBUILDING - LG OFFICE A END_B - STORY MID8 ZONE AIR NODE,Air,0
 Node,737,ZONE OFFICE WHOLEBUILDING - LG OFFICE A END_B - STORY MID9 ZONE AIR NODE,Air,0
 Node,738,ZONE OFFICE WHOLEBUILDING - LG OFFICE A END_B - STORY TOP ZONE AIR NODE,Air,0
 Node,739,ZONE OFFICE WHOLEBUILDING - LG OFFICE B  - STORY GROUND ZONE AIR NODE,Air,0
 Node,740,ZONE OFFICE WHOLEBUILDING - LG OFFICE B  - STORY MID ZONE AIR NODE,Air,0
 Node,741,ZONE OFFICE WHOLEBUILDING - LG OFFICE B  - STORY MID10 ZONE AIR NODE,Air,0
 Node,742,ZONE OFFICE WHOLEBUILDING - LG OFFICE B  - STORY MID11 ZONE AIR NODE,Air,0
 Node,743,ZONE OFFICE WHOLEBUILDING - LG OFFICE B  - STORY MID2 ZONE AIR NODE,Air,0
 Node,744,ZONE OFFICE WHOLEBUILDING - LG OFFICE B  - STORY MID3 ZONE AIR NODE,Air,0
 Node,745,ZONE OFFICE WHOLEBUILDING - LG OFFICE B  - STORY MID4 ZONE AIR NODE,Air,0
 Node,746,ZONE OFFICE WHOLEBUILDING - LG OFFICE B  - STORY MID5 ZONE AIR NODE,Air,0
 Node,747,ZONE OFFICE WHOLEBUILDING - LG OFFICE B  - STORY MID6 ZONE AIR NODE,Air,0
 Node,748,ZONE OFFICE WHOLEBUILDING - LG OFFICE B  - STORY MID7 ZONE AIR NODE,Air,0
 Node,749,ZONE OFFICE WHOLEBUILDING - LG OFFICE B  - STORY MID8 ZONE AIR NODE,Air,0
 Node,750,ZONE OFFICE WHOLEBUILDING - LG OFFICE B  - STORY MID9 ZONE AIR NODE,Air,0
 Node,751,ZONE OFFICE WHOLEBUILDING - LG OFFICE B  - STORY TOP ZONE AIR NODE,Air,0
 Node,752,ZONE OFFICE WHOLEBUILDING - LG OFFICE B END_A - STORY GROUND ZONE AIR NODE,Air,0
 Node,753,ZONE OFFICE WHOLEBUILDING - LG OFFICE B END_A - STORY MID ZONE AIR NODE,Air,0
 Node,754,ZONE OFFICE WHOLEBUILDING - LG OFFICE B END_A - STORY MID10 ZONE AIR NODE,Air,0
 Node,755,ZONE OFFICE WHOLEBUILDING - LG OFFICE B END_A - STORY MID11 ZONE AIR NODE,Air,0
 Node,756,ZONE OFFICE WHOLEBUILDING - LG OFFICE B END_A - STORY MID2 ZONE AIR NODE,Air,0
 Node,757,ZONE OFFICE WHOLEBUILDING - LG OFFICE B END_A - STORY MID3 ZONE AIR NODE,Air,0
 Node,758,ZONE OFFICE WHOLEBUILDING - LG OFFICE B END_A - STORY MID4 ZONE AIR NODE,Air,0
 Node,759,ZONE OFFICE WHOLEBUILDING - LG OFFICE B END_A - STORY MID5 ZONE AIR NODE,Air,0
 Node,760,ZONE OFFICE WHOLEBUILDING - LG OFFICE B END_A - STORY MID6 ZONE AIR NODE,Air,0
 Node,761,ZONE OFFICE WHOLEBUILDING - LG OFFICE B END_A - STORY MID7 ZONE AIR NODE,Air,0
 Node,762,ZONE OFFICE WHOLEBUILDING - LG OFFICE B END_A - STORY MID8 ZONE AIR NODE,Air,0
 Node,763,ZONE OFFICE WHOLEBUILDING - LG OFFICE B END_A - STORY MID9 ZONE AIR NODE,Air,0
 Node,764,ZONE OFFICE WHOLEBUILDING - LG OFFICE B END_A - STORY TOP ZONE AIR NODE,Air,0
 Node,765,ZONE OFFICE WHOLEBUILDING - LG OFFICE B END_B - STORY MID ZONE AIR NODE,Air,0
 Node,766,ZONE OFFICE WHOLEBUILDING - LG OFFICE B END_B - STORY MID10 ZONE AIR NODE,Air,0
 Node,767,ZONE OFFICE WHOLEBUILDING - LG OFFICE B END_B - STORY MID11 ZONE AIR NODE,Air,0
 Node,768,ZONE OFFICE WHOLEBUILDING - LG OFFICE B END_B - STORY MID2 ZONE AIR NODE,Air,0
 Node,769,ZONE OFFICE WHOLEBUILDING - LG OFFICE B END_B - STORY MID3 ZONE AIR NODE,Air,0
 Node,770,ZONE OFFICE WHOLEBUILDING - LG OFFICE B END_B - STORY MID4 ZONE AIR NODE,Air,0
 Node,771,ZONE OFFICE WHOLEBUILDING - LG OFFICE B END_B - STORY MID5 ZONE AIR NODE,Air,0
 Node,772,ZONE OFFICE WHOLEBUILDING - LG OFFICE B END_B - STORY MID6 ZONE AIR NODE,Air,0
 Node,773,ZONE OFFICE WHOLEBUILDING - LG OFFICE B END_B - STORY MID7 ZONE AIR NODE,Air,0
 Node,774,ZONE OFFICE WHOLEBUILDING - LG OFFICE B END_B - STORY MID8 ZONE AIR NODE,Air,0
 Node,775,ZONE OFFICE WHOLEBUILDING - LG OFFICE B END_B - STORY MID9 ZONE AIR NODE,Air,0
 Node,776,ZONE OFFICE WHOLEBUILDING - LG OFFICE B END_B - STORY TOP ZONE AIR NODE,Air,0
 Node,777,ZONE OFFICE WHOLEBUILDING - LG OFFICE C  - STORY GROUND ZONE AIR NODE,Air,0
 Node,778,ZONE OFFICE WHOLEBUILDING - LG OFFICE C  - STORY MID ZONE AIR NODE,Air,0
 Node,779,ZONE OFFICE WHOLEBUILDING - LG OFFICE C  - STORY MID10 ZONE AIR NODE,Air,0
 Node,780,ZONE OFFICE WHOLEBUILDING - LG OFFICE C  - STORY MID11 ZONE AIR NODE,Air,0
 Node,781,ZONE OFFICE WHOLEBUILDING - LG OFFICE C  - STORY MID2 ZONE AIR NODE,Air,0
 Node,782,ZONE OFFICE WHOLEBUILDING - LG OFFICE C  - STORY MID3 ZONE AIR NODE,Air,0
 Node,783,ZONE OFFICE WHOLEBUILDING - LG OFFICE C  - STORY MID4 ZONE AIR NODE,Air,0
 Node,784,ZONE OFFICE WHOLEBUILDING - LG OFFICE C  - STORY MID5 ZONE AIR NODE,Air,0
 Node,785,ZONE OFFICE WHOLEBUILDING - LG OFFICE C  - STORY MID6 ZONE AIR NODE,Air,0
 Node,786,ZONE OFFICE WHOLEBUILDING - LG OFFICE C  - STORY MID7 ZONE AIR NODE,Air,0
 Node,787,ZONE OFFICE WHOLEBUILDING - LG OFFICE C  - STORY MID8 ZONE AIR NODE,Air,0
 Node,788,ZONE OFFICE WHOLEBUILDING - LG OFFICE C  - STORY MID9 ZONE AIR NODE,Air,0
 Node,789,ZONE OFFICE WHOLEBUILDING - LG OFFICE C  - STORY TOP ZONE AIR NODE,Air,0
 Node,790,ZONE OFFICE WHOLEBUILDING - LG OFFICE C END_A - STORY GROUND ZONE AIR NODE,Air,0
 Node,791,ZONE OFFICE WHOLEBUILDING - LG OFFICE C END_A - STORY MID ZONE AIR NODE,Air,0
 Node,792,ZONE OFFICE WHOLEBUILDING - LG OFFICE C END_A - STORY MID10 ZONE AIR NODE,Air,0
 Node,793,ZONE OFFICE WHOLEBUILDING - LG OFFICE C END_A - STORY MID11 ZONE AIR NODE,Air,0
 Node,794,ZONE OFFICE WHOLEBUILDING - LG OFFICE C END_A - STORY MID2 ZONE AIR NODE,Air,0
 Node,795,ZONE OFFICE WHOLEBUILDING - LG OFFICE C END_A - STORY MID3 ZONE AIR NODE,Air,0
 Node,796,ZONE OFFICE WHOLEBUILDING - LG OFFICE C END_A - STORY MID4 ZONE AIR NODE,Air,0
 Node,797,ZONE OFFICE WHOLEBUILDING - LG OFFICE C END_A - STORY MID5 ZONE AIR NODE,Air,0
 Node,798,ZONE OFFICE WHOLEBUILDING - LG OFFICE C END_A - STORY MID6 ZONE AIR NODE,Air,0
 Node,799,ZONE OFFICE WHOLEBUILDING - LG OFFICE C END_A - STORY MID7 ZONE AIR NODE,Air,0
 Node,800,ZONE OFFICE WHOLEBUILDING - LG OFFICE C END_A - STORY MID8 ZONE AIR NODE,Air,0
 Node,801,ZONE OFFICE WHOLEBUILDING - LG OFFICE C END_A - STORY MID9 ZONE AIR NODE,Air,0
 Node,802,ZONE OFFICE WHOLEBUILDING - LG OFFICE C END_A - STORY TOP ZONE AIR NODE,Air,0
 Node,803,ZONE OFFICE WHOLEBUILDING - LG OFFICE C END_B - STORY MID ZONE AIR NODE,Air,0
 Node,804,ZONE OFFICE WHOLEBUILDING - LG OFFICE C END_B - STORY MID10 ZONE AIR NODE,Air,0
 Node,805,ZONE OFFICE WHOLEBUILDING - LG OFFICE C END_B - STORY MID11 ZONE AIR NODE,Air,0
 Node,806,ZONE OFFICE WHOLEBUILDING - LG OFFICE C END_B - STORY MID2 ZONE AIR NODE,Air,0
 Node,807,ZONE OFFICE WHOLEBUILDING - LG OFFICE C END_B - STORY MID3 ZONE AIR NODE,Air,0
 Node,808,ZONE OFFICE WHOLEBUILDING - LG OFFICE C END_B - STORY MID4 ZONE AIR NODE,Air,0
 Node,809,ZONE OFFICE WHOLEBUILDING - LG OFFICE C END_B - STORY MID5 ZONE AIR NODE,Air,0
 Node,810,ZONE OFFICE WHOLEBUILDING - LG OFFICE C END_B - STORY MID6 ZONE AIR NODE,Air,0
 Node,811,ZONE OFFICE WHOLEBUILDING - LG OFFICE C END_B - STORY MID7 ZONE AIR NODE,Air,0
 Node,812,ZONE OFFICE WHOLEBUILDING - LG OFFICE C END_B - STORY MID8 ZONE AIR NODE,Air,0
 Node,813,ZONE OFFICE WHOLEBUILDING - LG OFFICE C END_B - STORY MID9 ZONE AIR NODE,Air,0
 Node,814,ZONE OFFICE WHOLEBUILDING - LG OFFICE C END_B - STORY TOP ZONE AIR NODE,Air,0
 Node,815,15 ZONE VAV DEMAND OUTLET NODE,Air,2
 Node,816,9 ZONE VAV DEMAND OUTLET NODE,Air,2
 Node,817,9 ZONE VAV 1 DEMAND OUTLET NODE,Air,2
 Node,818,9 ZONE VAV 10 DEMAND OUTLET NODE,Air,2
 Node,819,9 ZONE VAV 11 DEMAND OUTLET NODE,Air,2
 Node,820,9 ZONE VAV 2 DEMAND OUTLET NODE,Air,2
 Node,821,9 ZONE VAV 3 DEMAND OUTLET NODE,Air,2
 Node,822,9 ZONE VAV 4 DEMAND OUTLET NODE,Air,2
 Node,823,9 ZONE VAV 5 DEMAND OUTLET NODE,Air,2
 Node,824,9 ZONE VAV 6 DEMAND OUTLET NODE,Air,2
 Node,825,9 ZONE VAV 7 DEMAND OUTLET NODE,Air,2
 Node,826,9 ZONE VAV 8 DEMAND OUTLET NODE,Air,2
 Node,827,9 ZONE VAV 9 DEMAND OUTLET NODE,Air,2
 Node,828,15 ZONE VAV OUTDOOR AIR NODE,Air,2
 Node,829,9 ZONE VAV OUTDOOR AIR NODE,Air,2
 Node,830,9 ZONE VAV 1 OUTDOOR AIR NODE,Air,2
 Node,831,9 ZONE VAV 10 OUTDOOR AIR NODE,Air,2
 Node,832,9 ZONE VAV 11 OUTDOOR AIR NODE,Air,2
 Node,833,9 ZONE VAV 2 OUTDOOR AIR NODE,Air,2
 Node,834,9 ZONE VAV 3 OUTDOOR AIR NODE,Air,2
 Node,835,9 ZONE VAV 4 OUTDOOR AIR NODE,Air,2
 Node,836,9 ZONE VAV 5 OUTDOOR AIR NODE,Air,2
 Node,837,9 ZONE VAV 6 OUTDOOR AIR NODE,Air,2
 Node,838,9 ZONE VAV 7 OUTDOOR AIR NODE,Air,2
 Node,839,9 ZONE VAV 8 OUTDOOR AIR NODE,Air,2
 Node,840,9 ZONE VAV 9 OUTDOOR AIR NODE,Air,2
 Node,841,MODEL OUTDOOR AIR NODE,Air,0
 Node,842,ZONE OFFICE OFFICELARGE DATA CENTER A  - STORY GROUND VAV TERMINAL INLET AIR NODE,Air,1
 Node,843,ZONE OFFICE OFFICELARGE DATA CENTER B  - STORY GROUND VAV TERMINAL INLET AIR NODE,Air,1
 Node,844,ZONE OFFICE OFFICELARGE DATA CENTER C  - STORY GROUND VAV TERMINAL INLET AIR NODE,Air,1
 Node,845,ZONE OFFICE OFFICELARGE MAIN DATA CENTER A  - STORY GROUND VAV TERMINAL INLET AIR NODE,Air,1
 Node,846,ZONE OFFICE OFFICELARGE MAIN DATA CENTER A END_B - STORY GROUND VAV TERMINAL INLET AIR NODE,Air,1
 Node,847,ZONE OFFICE OFFICELARGE MAIN DATA CENTER B  - STORY GROUND VAV TERMINAL INLET AIR NODE,Air,1
 Node,848,ZONE OFFICE OFFICELARGE MAIN DATA CENTER B END_B - STORY GROUND VAV TERMINAL INLET AIR NODE,Air,1
 Node,849,ZONE OFFICE OFFICELARGE MAIN DATA CENTER C  - STORY GROUND VAV TERMINAL INLET AIR NODE,Air,1
 Node,850,ZONE OFFICE OFFICELARGE MAIN DATA CENTER C END_B - STORY GROUND VAV TERMINAL INLET AIR NODE,Air,1
 Node,851,ZONE OFFICE WHOLEBUILDING - LG OFFICE A  - STORY GROUND VAV TERMINAL INLET AIR NODE,Air,1
 Node,852,ZONE OFFICE WHOLEBUILDING - LG OFFICE A END_A - STORY GROUND VAV TERMINAL INLET AIR NODE,Air,1
 Node,853,ZONE OFFICE WHOLEBUILDING - LG OFFICE B  - STORY GROUND VAV TERMINAL INLET AIR NODE,Air,1
 Node,854,ZONE OFFICE WHOLEBUILDING - LG OFFICE B END_A - STORY GROUND VAV TERMINAL INLET AIR NODE,Air,1
 Node,855,ZONE OFFICE WHOLEBUILDING - LG OFFICE C  - STORY GROUND VAV TERMINAL INLET AIR NODE,Air,1
 Node,856,ZONE OFFICE WHOLEBUILDING - LG OFFICE C END_A - STORY GROUND VAV TERMINAL INLET AIR NODE,Air,1
 Node,857,ZONE OFFICE WHOLEBUILDING - LG OFFICE A  - STORY MID VAV TERMINAL INLET AIR NODE,Air,1
 Node,858,ZONE OFFICE WHOLEBUILDING - LG OFFICE A END_A - STORY MID VAV TERMINAL INLET AIR NODE,Air,1
 Node,859,ZONE OFFICE WHOLEBUILDING - LG OFFICE A END_B - STORY MID VAV TERMINAL INLET AIR NODE,Air,1
 Node,860,ZONE OFFICE WHOLEBUILDING - LG OFFICE B  - STORY MID VAV TERMINAL INLET AIR NODE,Air,1
 Node,861,ZONE OFFICE WHOLEBUILDING - LG OFFICE B END_A - STORY MID VAV TERMINAL INLET AIR NODE,Air,1
 Node,862,ZONE OFFICE WHOLEBUILDING - LG OFFICE B END_B - STORY MID VAV TERMINAL INLET AIR NODE,Air,1
 Node,863,ZONE OFFICE WHOLEBUILDING - LG OFFICE C  - STORY MID VAV TERMINAL INLET AIR NODE,Air,1
 Node,864,ZONE OFFICE WHOLEBUILDING - LG OFFICE C END_A - STORY MID VAV TERMINAL INLET AIR NODE,Air,1
 Node,865,ZONE OFFICE WHOLEBUILDING - LG OFFICE C END_B - STORY MID VAV TERMINAL INLET AIR NODE,Air,1
 Node,866,ZONE OFFICE WHOLEBUILDING - LG OFFICE A  - STORY MID10 VAV TERMINAL INLET AIR NODE,Air,1
 Node,867,ZONE OFFICE WHOLEBUILDING - LG OFFICE A END_A - STORY MID10 VAV TERMINAL INLET AIR NODE,Air,1
 Node,868,ZONE OFFICE WHOLEBUILDING - LG OFFICE A END_B - STORY MID10 VAV TERMINAL INLET AIR NODE,Air,1
 Node,869,ZONE OFFICE WHOLEBUILDING - LG OFFICE B  - STORY MID10 VAV TERMINAL INLET AIR NODE,Air,1
 Node,870,ZONE OFFICE WHOLEBUILDING - LG OFFICE B END_A - STORY MID10 VAV TERMINAL INLET AIR NODE,Air,1
 Node,871,ZONE OFFICE WHOLEBUILDING - LG OFFICE B END_B - STORY MID10 VAV TERMINAL INLET AIR NODE,Air,1
 Node,872,ZONE OFFICE WHOLEBUILDING - LG OFFICE C  - STORY MID10 VAV TERMINAL INLET AIR NODE,Air,1
 Node,873,ZONE OFFICE WHOLEBUILDING - LG OFFICE C END_A - STORY MID10 VAV TERMINAL INLET AIR NODE,Air,1
 Node,874,ZONE OFFICE WHOLEBUILDING - LG OFFICE C END_B - STORY MID10 VAV TERMINAL INLET AIR NODE,Air,1
 Node,875,ZONE OFFICE WHOLEBUILDING - LG OFFICE A  - STORY MID9 VAV TERMINAL INLET AIR NODE,Air,1
 Node,876,ZONE OFFICE WHOLEBUILDING - LG OFFICE A END_A - STORY MID9 VAV TERMINAL INLET AIR NODE,Air,1
 Node,877,ZONE OFFICE WHOLEBUILDING - LG OFFICE A END_B - STORY MID9 VAV TERMINAL INLET AIR NODE,Air,1
 Node,878,ZONE OFFICE WHOLEBUILDING - LG OFFICE B  - STORY MID9 VAV TERMINAL INLET AIR NODE,Air,1
 Node,879,ZONE OFFICE WHOLEBUILDING - LG OFFICE B END_A - STORY MID9 VAV TERMINAL INLET AIR NODE,Air,1
 Node,880,ZONE OFFICE WHOLEBUILDING - LG OFFICE B END_B - STORY MID9 VAV TERMINAL INLET AIR NODE,Air,1
 Node,881,ZONE OFFICE WHOLEBUILDING - LG OFFICE C  - STORY MID9 VAV TERMINAL INLET AIR NODE,Air,1
 Node,882,ZONE OFFICE WHOLEBUILDING - LG OFFICE C END_A - STORY MID9 VAV TERMINAL INLET AIR NODE,Air,1
 Node,883,ZONE OFFICE WHOLEBUILDING - LG OFFICE C END_B - STORY MID9 VAV TERMINAL INLET AIR NODE,Air,1
 Node,884,ZONE OFFICE WHOLEBUILDING - LG OFFICE A  - STORY TOP VAV TERMINAL INLET AIR NODE,Air,1
 Node,885,ZONE OFFICE WHOLEBUILDING - LG OFFICE A END_A - STORY TOP VAV TERMINAL INLET AIR NODE,Air,1
 Node,886,ZONE OFFICE WHOLEBUILDING - LG OFFICE A END_B - STORY TOP VAV TERMINAL INLET AIR NODE,Air,1
 Node,887,ZONE OFFICE WHOLEBUILDING - LG OFFICE B  - STORY TOP VAV TERMINAL INLET AIR NODE,Air,1
 Node,888,ZONE OFFICE WHOLEBUILDING - LG OFFICE B END_A - STORY TOP VAV TERMINAL INLET AIR NODE,Air,1
 Node,889,ZONE OFFICE WHOLEBUILDING - LG OFFICE B END_B - STORY TOP VAV TERMINAL INLET AIR NODE,Air,1
 Node,890,ZONE OFFICE WHOLEBUILDING - LG OFFICE C  - STORY TOP VAV TERMINAL INLET AIR NODE,Air,1
 Node,891,ZONE OFFICE WHOLEBUILDING - LG OFFICE C END_A - STORY TOP VAV TERMINAL INLET AIR NODE,Air,1
 Node,892,ZONE OFFICE WHOLEBUILDING - LG OFFICE C END_B - STORY TOP VAV TERMINAL INLET AIR NODE,Air,1
 Node,893,ZONE OFFICE WHOLEBUILDING - LG OFFICE A  - STORY MID11 VAV TERMINAL INLET AIR NODE,Air,1
 Node,894,ZONE OFFICE WHOLEBUILDING - LG OFFICE A END_A - STORY MID11 VAV TERMINAL INLET AIR NODE,Air,1
 Node,895,ZONE OFFICE WHOLEBUILDING - LG OFFICE A END_B - STORY MID11 VAV TERMINAL INLET AIR NODE,Air,1
 Node,896,ZONE OFFICE WHOLEBUILDING - LG OFFICE B  - STORY MID11 VAV TERMINAL INLET AIR NODE,Air,1
 Node,897,ZONE OFFICE WHOLEBUILDING - LG OFFICE B END_A - STORY MID11 VAV TERMINAL INLET AIR NODE,Air,1
 Node,898,ZONE OFFICE WHOLEBUILDING - LG OFFICE B END_B - STORY MID11 VAV TERMINAL INLET AIR NODE,Air,1
 Node,899,ZONE OFFICE WHOLEBUILDING - LG OFFICE C  - STORY MID11 VAV TERMINAL INLET AIR NODE,Air,1
 Node,900,ZONE OFFICE WHOLEBUILDING - LG OFFICE C END_A - STORY MID11 VAV TERMINAL INLET AIR NODE,Air,1
 Node,901,ZONE OFFICE WHOLEBUILDING - LG OFFICE C END_B - STORY MID11 VAV TERMINAL INLET AIR NODE,Air,1
[...]
 Non-Parent Node Connection,9 ZONE VAV 8 DEMAND OUTLET NODE,AIRLOOPHVAC:ZONEMIXER,AIR LOOP HVAC ZONE MIXER 10,Outlet,1
 Non-Parent Node Connection,ZONE OFFICE WHOLEBUILDING - LG OFFICE A  - STORY MID7 RETURN AIR NODE,AIRLOOPHVAC:ZONEMIXER,AIR LOOP HVAC ZONE MIXER 10,Inlet,1
 Non-Parent Node Connection,ZONE OFFICE WHOLEBUILDING - LG OFFICE A END_A - STORY MID7 RETURN AIR NODE,AIRLOOPHVAC:ZONEMIXER,AIR LOOP HVAC ZONE MIXER 10,Inlet,1
 Non-Parent Node Connection,ZONE OFFICE WHOLEBUILDING - LG OFFICE A END_B - STORY MID7 RETURN AIR NODE,AIRLOOPHVAC:ZONEMIXER,AIR LOOP HVAC ZONE MIXER 10,Inlet,1
 Non-Parent Node Connection,ZONE OFFICE WHOLEBUILDING - LG OFFICE B  - STORY MID7 RETURN AIR NODE,AIRLOOPHVAC:ZONEMIXER,AIR LOOP HVAC ZONE MIXER 10,Inlet,1
 Non-Parent Node Connection,ZONE OFFICE WHOLEBUILDING - LG OFFICE B END_A - STORY MID7 RETURN AIR NODE,AIRLOOPHVAC:ZONEMIXER,AIR LOOP HVAC ZONE MIXER 10,Inlet,1
 Non-Parent Node Connection,ZONE OFFICE WHOLEBUILDING - LG OFFICE B END_B - STORY MID7 RETURN AIR NODE,AIRLOOPHVAC:ZONEMIXER,AIR LOOP HVAC ZONE MIXER 10,Inlet,1
 Non-Parent Node Connection,ZONE OFFICE WHOLEBUILDING - LG OFFICE C  - STORY MID7 RETURN AIR NODE,AIRLOOPHVAC:ZONEMIXER,AIR LOOP HVAC ZONE MIXER 10,Inlet,1
 Non-Parent Node Connection,ZONE OFFICE WHOLEBUILDING - LG OFFICE C END_A - STORY MID7 RETURN AIR NODE,AIRLOOPHVAC:ZONEMIXER,AIR LOOP HVAC ZONE MIXER 10,Inlet,1
 Non-Parent Node Connection,ZONE OFFICE WHOLEBUILDING - LG OFFICE C END_B - STORY MID7 RETURN AIR NODE,AIRLOOPHVAC:ZONEMIXER,AIR LOOP HVAC ZONE MIXER 10,Inlet,1
 Non-Parent Node Connection,9 ZONE VAV 9 DEMAND OUTLET NODE,AIRLOOPHVAC:ZONEMIXER,AIR LOOP HVAC ZONE MIXER 11,Outlet,1
 Non-Parent Node Connection,ZONE OFFICE WHOLEBUILDING - LG OFFICE A  - STORY MID8 RETURN AIR NODE,AIRLOOPHVAC:ZONEMIXER,AIR LOOP HVAC ZONE MIXER 11,Inlet,1
 Non-Parent Node Connection,ZONE OFFICE WHOLEBUILDING - LG OFFICE A END_A - STORY MID8 RETURN AIR NODE,AIRLOOPHVAC:ZONEMIXER,AIR LOOP HVAC ZONE MIXER 11,Inlet,1
 Non-Parent Node Connection,ZONE OFFICE WHOLEBUILDING - LG OFFICE A END_B - STORY MID8 RETURN AIR NODE,AIRLOOPHVAC:ZONEMIXER,AIR LOOP HVAC ZONE MIXER 11,Inlet,1
 Non-Parent Node Connection,ZONE OFFICE WHOLEBUILDING - LG OFFICE B  - STORY MID8 RETURN AIR NODE,AIRLOOPHVAC:ZONEMIXER,AIR LOOP HVAC ZONE MIXER 11,Inlet,1
 Non-Parent Node Connection,ZONE OFFICE WHOLEBUILDING - LG OFFICE B END_A - STORY MID8 RETURN AIR NODE,AIRLOOPHVAC:ZONEMIXER,AIR LOOP HVAC ZONE MIXER 11,Inlet,1
 Non-Parent Node Connection,ZONE OFFICE WHOLEBUILDING - LG OFFICE B END_B - STORY MID8 RETURN AIR NODE,AIRLOOPHVAC:ZONEMIXER,AIR LOOP HVAC ZONE MIXER 11,Inlet,1
 Non-Parent Node Connection,ZONE OFFICE WHOLEBUILDING - LG OFFICE C  - STORY MID8 RETURN AIR NODE,AIRLOOPHVAC:ZONEMIXER,AIR LOOP HVAC ZONE MIXER 11,Inlet,1
 Non-Parent Node Connection,ZONE OFFICE WHOLEBUILDING - LG OFFICE C END_A - STORY MID8 RETURN AIR NODE,AIRLOOPHVAC:ZONEMIXER,AIR LOOP HVAC ZONE MIXER 11,Inlet,1
 Non-Parent Node Connection,ZONE OFFICE WHOLEBUILDING - LG OFFICE C END_B - STORY MID8 RETURN AIR NODE,AIRLOOPHVAC:ZONEMIXER,AIR LOOP HVAC ZONE MIXER 11,Inlet,1
 Non-Parent Node Connection,15 ZONE VAV MIXED AIR NODE,OUTDOORAIR:MIXER,15 ZONE VAV OA SYSTEM OUTDOOR AIR MIXER,Outlet,1
 Non-Parent Node Connection,15 ZONE VAV OUTDOOR AIR NODE,OUTDOORAIR:MIXER,15 ZONE VAV OA SYSTEM OUTDOOR AIR MIXER,Inlet,1
 Non-Parent Node Connection,15 ZONE VAV RELIEF AIR NODE,OUTDOORAIR:MIXER,15 ZONE VAV OA SYSTEM OUTDOOR AIR MIXER,ReliefAir,1
 Non-Parent Node Connection,15 ZONE VAV SUPPLY INLET NODE,OUTDOORAIR:MIXER,15 ZONE VAV OA SYSTEM OUTDOOR AIR MIXER,Inlet,1
 Non-Parent Node Connection,9 ZONE VAV MIXED AIR NODE,OUTDOORAIR:MIXER,9 ZONE VAV OA SYSTEM OUTDOOR AIR MIXER,Outlet,1
 Non-Parent Node Connection,9 ZONE VAV OUTDOOR AIR NODE,OUTDOORAIR:MIXER,9 ZONE VAV OA SYSTEM OUTDOOR AIR MIXER,Inlet,1
 Non-Parent Node Connection,9 ZONE VAV RELIEF AIR NODE,OUTDOORAIR:MIXER,9 ZONE VAV OA SYSTEM OUTDOOR AIR MIXER,ReliefAir,1
 Non-Parent Node Connection,9 ZONE VAV SUPPLY INLET NODE,OUTDOORAIR:MIXER,9 ZONE VAV OA SYSTEM OUTDOOR AIR MIXER,Inlet,1
 Non-Parent Node Connection,9 ZONE VAV 1 MIXED AIR NODE,OUTDOORAIR:MIXER,9 ZONE VAV 1 OA SYSTEM OUTDOOR AIR MIXER,Outlet,1
 Non-Parent Node Connection,9 ZONE VAV 1 OUTDOOR AIR NODE,OUTDOORAIR:MIXER,9 ZONE VAV 1 OA SYSTEM OUTDOOR AIR MIXER,Inlet,1
 Non-Parent Node Connection,9 ZONE VAV 1 RELIEF AIR NODE,OUTDOORAIR:MIXER,9 ZONE VAV 1 OA SYSTEM OUTDOOR AIR MIXER,ReliefAir,1
 Non-Parent Node Connection,9 ZONE VAV 1 SUPPLY INLET NODE,OUTDOORAIR:MIXER,9 ZONE VAV 1 OA SYSTEM OUTDOOR AIR MIXER,Inlet,1
 Non-Parent Node Connection,9 ZONE VAV 10 MIXED AIR NODE,OUTDOORAIR:MIXER,9 ZONE VAV 10 OA SYSTEM OUTDOOR AIR MIXER,Outlet,1
 Non-Parent Node Connection,9 ZONE VAV 10 OUTDOOR AIR NODE,OUTDOORAIR:MIXER,9 ZONE VAV 10 OA SYSTEM OUTDOOR AIR MIXER,Inlet,1
 Non-Parent Node Connection,9 ZONE VAV 10 RELIEF AIR NODE,OUTDOORAIR:MIXER,9 ZONE VAV 10 OA SYSTEM OUTDOOR AIR MIXER,ReliefAir,1
 Non-Parent Node Connection,9 ZONE VAV 10 SUPPLY INLET NODE,OUTDOORAIR:MIXER,9 ZONE VAV 10 OA SYSTEM OUTDOOR AIR MIXER,Inlet,1
 Non-Parent Node Connection,9 ZONE VAV 11 MIXED AIR NODE,OUTDOORAIR:MIXER,9 ZONE VAV 11 OA SYSTEM OUTDOOR AIR MIXER,Outlet,1
 Non-Parent Node Connection,9 ZONE VAV 11 OUTDOOR AIR NODE,OUTDOORAIR:MIXER,9 ZONE VAV 11 OA SYSTEM OUTDOOR AIR MIXER,Inlet,1
 Non-Parent Node Connection,9 ZONE VAV 11 RELIEF AIR NODE,OUTDOORAIR:MIXER,9 ZONE VAV 11 OA SYSTEM OUTDOOR AIR MIXER,ReliefAir,1
 Non-Parent Node Connection,9 ZONE VAV 11 SUPPLY INLET NODE,OUTDOORAIR:MIXER,9 ZONE VAV 11 OA SYSTEM OUTDOOR AIR MIXER,Inlet,1
 Non-Parent Node Connection,9 ZONE VAV 2 MIXED AIR NODE,OUTDOORAIR:MIXER,9 ZONE VAV 2 OA SYSTEM OUTDOOR AIR MIXER,Outlet,1
 Non-Parent Node Connection,9 ZONE VAV 2 OUTDOOR AIR NODE,OUTDOORAIR:MIXER,9 ZONE VAV 2 OA SYSTEM OUTDOOR AIR MIXER,Inlet,1
 Non-Parent Node Connection,9 ZONE VAV 2 RELIEF AIR NODE,OUTDOORAIR:MIXER,9 ZONE VAV 2 OA SYSTEM OUTDOOR AIR MIXER,ReliefAir,1
 Non-Parent Node Connection,9 ZONE VAV 2 SUPPLY INLET NODE,OUTDOORAIR:MIXER,9 ZONE VAV 2 OA SYSTEM OUTDOOR AIR MIXER,Inlet,1
 Non-Parent Node Connection,9 ZONE VAV 3 MIXED AIR NODE,OUTDOORAIR:MIXER,9 ZONE VAV 3 OA SYSTEM OUTDOOR AIR MIXER,Outlet,1
 Non-Parent Node Connection,9 ZONE VAV 3 OUTDOOR AIR NODE,OUTDOORAIR:MIXER,9 ZONE VAV 3 OA SYSTEM OUTDOOR AIR MIXER,Inlet,1
 Non-Parent Node Connection,9 ZONE VAV 3 RELIEF AIR NODE,OUTDOORAIR:MIXER,9 ZONE VAV 3 OA SYSTEM OUTDOOR AIR MIXER,ReliefAir,1
 Non-Parent Node Connection,9 ZONE VAV 3 SUPPLY INLET NODE,OUTDOORAIR:MIXER,9 ZONE VAV 3 OA SYSTEM OUTDOOR AIR MIXER,Inlet,1
 Non-Parent Node Connection,9 ZONE VAV 4 MIXED AIR NODE,OUTDOORAIR:MIXER,9 ZONE VAV 4 OA SYSTEM OUTDOOR AIR MIXER,Outlet,1
 Non-Parent Node Connection,9 ZONE VAV 4 OUTDOOR AIR NODE,OUTDOORAIR:MIXER,9 ZONE VAV 4 OA SYSTEM OUTDOOR AIR MIXER,Inlet,1
 Non-Parent Node Connection,9 ZONE VAV 4 RELIEF AIR NODE,OUTDOORAIR:MIXER,9 ZONE VAV 4 OA SYSTEM OUTDOOR AIR MIXER,ReliefAir,1
 Non-Parent Node Connection,9 ZONE VAV 4 SUPPLY INLET NODE,OUTDOORAIR:MIXER,9 ZONE VAV 4 OA SYSTEM OUTDOOR AIR MIXER,Inlet,1
 Non-Parent Node Connection,9 ZONE VAV 5 MIXED AIR NODE,OUTDOORAIR:MIXER,9 ZONE VAV 5 OA SYSTEM OUTDOOR AIR MIXER,Outlet,1
 Non-Parent Node Connection,9 ZONE VAV 5 OUTDOOR AIR NODE,OUTDOORAIR:MIXER,9 ZONE VAV 5 OA SYSTEM OUTDOOR AIR MIXER,Inlet,1
 Non-Parent Node Connection,9 ZONE VAV 5 RELIEF AIR NODE,OUTDOORAIR:MIXER,9 ZONE VAV 5 OA SYSTEM OUTDOOR AIR MIXER,ReliefAir,1
 Non-Parent Node Connection,9 ZONE VAV 5 SUPPLY INLET NODE,OUTDOORAIR:MIXER,9 ZONE VAV 5 OA SYSTEM OUTDOOR AIR MIXER,Inlet,1
 Non-Parent Node Connection,9 ZONE VAV 6 MIXED AIR NODE,OUTDOORAIR:MIXER,9 ZONE VAV 6 OA SYSTEM OUTDOOR AIR MIXER,Outlet,1
 Non-Parent Node Connection,9 ZONE VAV 6 OUTDOOR AIR NODE,OUTDOORAIR:MIXER,9 ZONE VAV 6 OA SYSTEM OUTDOOR AIR MIXER,Inlet,1
 Non-Parent Node Connection,9 ZONE VAV 6 RELIEF AIR NODE,OUTDOORAIR:MIXER,9 ZONE VAV 6 OA SYSTEM OUTDOOR AIR MIXER,ReliefAir,1
 Non-Parent Node Connection,9 ZONE VAV 6 SUPPLY INLET NODE,OUTDOORAIR:MIXER,9 ZONE VAV 6 OA SYSTEM OUTDOOR AIR MIXER,Inlet,1
 Non-Parent Node Connection,9 ZONE VAV 7 MIXED AIR NODE,OUTDOORAIR:MIXER,9 ZONE VAV 7 OA SYSTEM OUTDOOR AIR MIXER,Outlet,1
 Non-Parent Node Connection,9 ZONE VAV 7 OUTDOOR AIR NODE,OUTDOORAIR:MIXER,9 ZONE VAV 7 OA SYSTEM OUTDOOR AIR MIXER,Inlet,1
 Non-Parent Node Connection,9 ZONE VAV 7 RELIEF AIR NODE,OUTDOORAIR:MIXER,9 ZONE VAV 7 OA SYSTEM OUTDOOR AIR MIXER,ReliefAir,1
 Non-Parent Node Connection,9 ZONE VAV 7 SUPPLY INLET NODE,OUTDOORAIR:MIXER,9 ZONE VAV 7 OA SYSTEM OUTDOOR AIR MIXER,Inlet,1
 Non-Parent Node Connection,9 ZONE VAV 8 MIXED AIR NODE,OUTDOORAIR:MIXER,9 ZONE VAV 8 OA SYSTEM OUTDOOR AIR MIXER,Outlet,1
 Non-Parent Node Connection,9 ZONE VAV 8 OUTDOOR AIR NODE,OUTDOORAIR:MIXER,9 ZONE VAV 8 OA SYSTEM OUTDOOR AIR MIXER,Inlet,1
 Non-Parent Node Connection,9 ZONE VAV 8 RELIEF AIR NODE,OUTDOORAIR:MIXER,9 ZONE VAV 8 OA SYSTEM OUTDOOR AIR MIXER,ReliefAir,1
 Non-Parent Node Connection,9 ZONE VAV 8 SUPPLY INLET NODE,OUTDOORAIR:MIXER,9 ZONE VAV 8 OA SYSTEM OUTDOOR AIR MIXER,Inlet,1
 Non-Parent Node Connection,9 ZONE VAV 9 MIXED AIR NODE,OUTDOORAIR:MIXER,9 ZONE VAV 9 OA SYSTEM OUTDOOR AIR MIXER,Outlet,1
 Non-Parent Node Connection,9 ZONE VAV 9 OUTDOOR AIR NODE,OUTDOORAIR:MIXER,9 ZONE VAV 9 OA SYSTEM OUTDOOR AIR MIXER,Inlet,1
 Non-Parent Node Connection,9 ZONE VAV 9 RELIEF AIR NODE,OUTDOORAIR:MIXER,9 ZONE VAV 9 OA SYSTEM OUTDOOR AIR MIXER,ReliefAir,1
 Non-Parent Node Connection,9 ZONE VAV 9 SUPPLY INLET NODE,OUTDOORAIR:MIXER,9 ZONE VAV 9 OA SYSTEM OUTDOOR AIR MIXER,Inlet,1
 Non-Parent Node Connection,15 ZONE VAV MAIN HTG COIL OUTLET AIR NODE,FAN:VARIABLEVOLUME,15 ZONE VAV FAN,Inlet,1
 Non-Parent Node Connection,15 ZONE VAV SUPPLY OUTLET NODE,FAN:VARIABLEVOLUME,15 ZONE VAV FAN,Outlet,1
 Non-Parent Node Connection,9 ZONE VAV MAIN HTG COIL OUTLET AIR NODE,FAN:VARIABLEVOLUME,9 ZONE VAV FAN,Inlet,1
 Non-Parent Node Connection,9 ZONE VAV SUPPLY OUTLET NODE,FAN:VARIABLEVOLUME,9 ZONE VAV FAN,Outlet,1
 Non-Parent Node Connection,9 ZONE VAV 1 MAIN HTG COIL OUTLET AIR NODE,FAN:VARIABLEVOLUME,9 ZONE VAV 1 FAN,Inlet,1
 Non-Parent Node Connection,9 ZONE VAV 1 SUPPLY OUTLET NODE,FAN:VARIABLEVOLUME,9 ZONE VAV 1 FAN,Outlet,1
 Non-Parent Node Connection,9 ZONE VAV 10 MAIN HTG COIL OUTLET AIR NODE,FAN:VARIABLEVOLUME,9 ZONE VAV 10 FAN,Inlet,1
 Non-Parent Node Connection,9 ZONE VAV 10 SUPPLY OUTLET NODE,FAN:VARIABLEVOLUME,9 ZONE VAV 10 FAN,Outlet,1
 Non-Parent Node Connection,9 ZONE VAV 11 MAIN HTG COIL OUTLET AIR NODE,FAN:VARIABLEVOLUME,9 ZONE VAV 11 FAN,Inlet,1
 Non-Parent Node Connection,9 ZONE VAV 11 SUPPLY OUTLET NODE,FAN:VARIABLEVOLUME,9 ZONE VAV 11 FAN,Outlet,1
 Non-Parent Node Connection,9 ZONE VAV 2 MAIN HTG COIL OUTLET AIR NODE,FAN:VARIABLEVOLUME,9 ZONE VAV 2 FAN,Inlet,1
 Non-Parent Node Connection,9 ZONE VAV 2 SUPPLY OUTLET NODE,FAN:VARIABLEVOLUME,9 ZONE VAV 2 FAN,Outlet,1
 Non-Parent Node Connection,9 ZONE VAV 3 MAIN HTG COIL OUTLET AIR NODE,FAN:VARIABLEVOLUME,9 ZONE VAV 3 FAN,Inlet,1
 Non-Parent Node Connection,9 ZONE VAV 3 SUPPLY OUTLET NODE,FAN:VARIABLEVOLUME,9 ZONE VAV 3 FAN,Outlet,1
 Non-Parent Node Connection,9 ZONE VAV 4 MAIN HTG COIL OUTLET AIR NODE,FAN:VARIABLEVOLUME,9 ZONE VAV 4 FAN,Inlet,1
 Non-Parent Node Connection,9 ZONE VAV 4 SUPPLY OUTLET NODE,FAN:VARIABLEVOLUME,9 ZONE VAV 4 FAN,Outlet,1
 Non-Parent Node Connection,9 ZONE VAV 5 MAIN HTG COIL OUTLET AIR NODE,FAN:VARIABLEVOLUME,9 ZONE VAV 5 FAN,Inlet,1
 Non-Parent Node Connection,9 ZONE VAV 5 SUPPLY OUTLET NODE,FAN:VARIABLEVOLUME,9 ZONE VAV 5 FAN,Outlet,1
 Non-Parent Node Connection,9 ZONE VAV 6 MAIN HTG COIL OUTLET AIR NODE,FAN:VARIABLEVOLUME,9 ZONE VAV 6 FAN,Inlet,1
 Non-Parent Node Connection,9 ZONE VAV 6 SUPPLY OUTLET NODE,FAN:VARIABLEVOLUME,9 ZONE VAV 6 FAN,Outlet,1
 Non-Parent Node Connection,9 ZONE VAV 7 MAIN HTG COIL OUTLET AIR NODE,FAN:VARIABLEVOLUME,9 ZONE VAV 7 FAN,Inlet,1
 Non-Parent Node Connection,9 ZONE VAV 7 SUPPLY OUTLET NODE,FAN:VARIABLEVOLUME,9 ZONE VAV 7 FAN,Outlet,1
 Non-Parent Node Connection,9 ZONE VAV 8 MAIN HTG COIL OUTLET AIR NODE,FAN:VARIABLEVOLUME,9 ZONE VAV 8 FAN,Inlet,1
 Non-Parent Node Connection,9 ZONE VAV 8 SUPPLY OUTLET NODE,FAN:VARIABLEVOLUME,9 ZONE VAV 8 FAN,Outlet,1
 Non-Parent Node Connection,9 ZONE VAV 9 MAIN HTG COIL OUTLET AIR NODE,FAN:VARIABLEVOLUME,9 ZONE VAV 9 FAN,Inlet,1
 Non-Parent Node Connection,9 ZONE VAV 9 SUPPLY OUTLET NODE,FAN:VARIABLEVOLUME,9 ZONE VAV 9 FAN,Outlet,1
 Non-Parent Node Connection,15 ZONE VAV MIXED AIR NODE,CONTROLLER:OUTDOORAIR,15 ZONE VAV OA CONTROLLER,Sensor,1
 Non-Parent Node Connection,15 ZONE VAV OUTDOOR AIR NODE,CONTROLLER:OUTDOORAIR,15 ZONE VAV OA CONTROLLER,Actuator,1
 Non-Parent Node Connection,15 ZONE VAV RELIEF AIR NODE,CONTROLLER:OUTDOORAIR,15 ZONE VAV OA CONTROLLER,Actuator,1
 Non-Parent Node Connection,15 ZONE VAV SUPPLY INLET NODE,CONTROLLER:OUTDOORAIR,15 ZONE VAV OA CONTROLLER,Sensor,1
 Non-Parent Node Connection,9 ZONE VAV MIXED AIR NODE,CONTROLLER:OUTDOORAIR,9 ZONE VAV OA CONTROLLER,Sensor,1
 Non-Parent Node Connection,9 ZONE VAV OUTDOOR AIR NODE,CONTROLLER:OUTDOORAIR,9 ZONE VAV OA CONTROLLER,Actuator,1
 Non-Parent Node Connection,9 ZONE VAV RELIEF AIR NODE,CONTROLLER:OUTDOORAIR,9 ZONE VAV OA CONTROLLER,Actuator,1
 Non-Parent Node Connection,9 ZONE VAV SUPPLY INLET NODE,CONTROLLER:OUTDOORAIR,9 ZONE VAV OA CONTROLLER,Sensor,1
 Non-Parent Node Connection,9 ZONE VAV 1 MIXED AIR NODE,CONTROLLER:OUTDOORAIR,9 ZONE VAV 1 OA CONTROLLER,Sensor,1
 Non-Parent Node Connection,9 ZONE VAV 1 OUTDOOR AIR NODE,CONTROLLER:OUTDOORAIR,9 ZONE VAV 1 OA CONTROLLER,Actuator,1
 Non-Parent Node Connection,9 ZONE VAV 1 RELIEF AIR NODE,CONTROLLER:OUTDOORAIR,9 ZONE VAV 1 OA CONTROLLER,Actuator,1
 Non-Parent Node Connection,9 ZONE VAV 1 SUPPLY INLET NODE,CONTROLLER:OUTDOORAIR,9 ZONE VAV 1 OA CONTROLLER,Sensor,1
 Non-Parent Node Connection,9 ZONE VAV 10 MIXED AIR NODE,CONTROLLER:OUTDOORAIR,9 ZONE VAV 10 OA CONTROLLER,Sensor,1
 Non-Parent Node Connection,9 ZONE VAV 10 OUTDOOR AIR NODE,CONTROLLER:OUTDOORAIR,9 ZONE VAV 10 OA CONTROLLER,Actuator,1
 Non-Parent Node Connection,9 ZONE VAV 10 RELIEF AIR NODE,CONTROLLER:OUTDOORAIR,9 ZONE VAV 10 OA CONTROLLER,Actuator,1
 Non-Parent Node Connection,9 ZONE VAV 10 SUPPLY INLET NODE,CONTROLLER:OUTDOORAIR,9 ZONE VAV 10 OA CONTROLLER,Sensor,1
 Non-Parent Node Connection,9 ZONE VAV 11 MIXED AIR NODE,CONTROLLER:OUTDOORAIR,9 ZONE VAV 11 OA CONTROLLER,Sensor,1
 Non-Parent Node Connection,9 ZONE VAV 11 OUTDOOR AIR NODE,CONTROLLER:OUTDOORAIR,9 ZONE VAV 11 OA CONTROLLER,Actuator,1
 Non-Parent Node Connection,9 ZONE VAV 11 RELIEF AIR NODE,CONTROLLER:OUTDOORAIR,9 ZONE VAV 11 OA CONTROLLER,Actuator,1
 Non-Parent Node Connection,9 ZONE VAV 11 SUPPLY INLET NODE,CONTROLLER:OUTDOORAIR,9 ZONE VAV 11 OA CONTROLLER,Sensor,1
 Non-Parent Node Connection,9 ZONE VAV 2 MIXED AIR NODE,CONTROLLER:OUTDOORAIR,9 ZONE VAV 2 OA CONTROLLER,Sensor,1
 Non-Parent Node Connection,9 ZONE VAV 2 OUTDOOR AIR NODE,CONTROLLER:OUTDOORAIR,9 ZONE VAV 2 OA CONTROLLER,Actuator,1
 Non-Parent Node Connection,9 ZONE VAV 2 RELIEF AIR NODE,CONTROLLER:OUTDOORAIR,9 ZONE VAV 2 OA CONTROLLER,Actuator,1
 Non-Parent Node Connection,9 ZONE VAV 2 SUPPLY INLET NODE,CONTROLLER:OUTDOORAIR,9 ZONE VAV 2 OA CONTROLLER,Sensor,1
 Non-Parent Node Connection,9 ZONE VAV 3 MIXED AIR NODE,CONTROLLER:OUTDOORAIR,9 ZONE VAV 3 OA CONTROLLER,Sensor,1
 Non-Parent Node Connection,9 ZONE VAV 3 OUTDOOR AIR NODE,CONTROLLER:OUTDOORAIR,9 ZONE VAV 3 OA CONTROLLER,Actuator,1
 Non-Parent Node Connection,9 ZONE VAV 3 RELIEF AIR NODE,CONTROLLER:OUTDOORAIR,9 ZONE VAV 3 OA CONTROLLER,Actuator,1
 Non-Parent Node Connection,9 ZONE VAV 3 SUPPLY INLET NODE,CONTROLLER:OUTDOORAIR,9 ZONE VAV 3 OA CONTROLLER,Sensor,1
 Non-Parent Node Connection,9 ZONE VAV 4 MIXED AIR NODE,CONTROLLER:OUTDOORAIR,9 ZONE VAV 4 OA CONTROLLER,Sensor,1
 Non-Parent Node Connection,9 ZONE VAV 4 OUTDOOR AIR NODE,CONTROLLER:OUTDOORAIR,9 ZONE VAV 4 OA CONTROLLER,Actuator,1
 Non-Parent Node Connection,9 ZONE VAV 4 RELIEF AIR NODE,CONTROLLER:OUTDOORAIR,9 ZONE VAV 4 OA CONTROLLER,Actuator,1
 Non-Parent Node Connection,9 ZONE VAV 4 SUPPLY INLET NODE,CONTROLLER:OUTDOORAIR,9 ZONE VAV 4 OA CONTROLLER,Sensor,1
 Non-Parent Node Connection,9 ZONE VAV 5 MIXED AIR NODE,CONTROLLER:OUTDOORAIR,9 ZONE VAV 5 OA CONTROLLER,Sensor,1
 Non-Parent Node Connection,9 ZONE VAV 5 OUTDOOR AIR NODE,CONTROLLER:OUTDOORAIR,9 ZONE VAV 5 OA CONTROLLER,Actuator,1
 Non-Parent Node Connection,9 ZONE VAV 5 RELIEF AIR NODE,CONTROLLER:OUTDOORAIR,9 ZONE VAV 5 OA CONTROLLER,Actuator,1
 Non-Parent Node Connection,9 ZONE VAV 5 SUPPLY INLET NODE,CONTROLLER:OUTDOORAIR,9 ZONE VAV 5 OA CONTROLLER,Sensor,1
 Non-Parent Node Connection,9 ZONE VAV 6 MIXED AIR NODE,CONTROLLER:OUTDOORAIR,9 ZONE VAV 6 OA CONTROLLER,Sensor,1
 Non-Parent Node Connection,9 ZONE VAV 6 OUTDOOR AIR NODE,CONTROLLER:OUTDOORAIR,9 ZONE VAV 6 OA CONTROLLER,Actuator,1
 Non-Parent Node Connection,9 ZONE VAV 6 RELIEF AIR NODE,CONTROLLER:OUTDOORAIR,9 ZONE VAV 6 OA CONTROLLER,Actuator,1
 Non-Parent Node Connection,9 ZONE VAV 6 SUPPLY INLET NODE,CONTROLLER:OUTDOORAIR,9 ZONE VAV 6 OA CONTROLLER,Sensor,1
 Non-Parent Node Connection,9 ZONE VAV 7 MIXED AIR NODE,CONTROLLER:OUTDOORAIR,9 ZONE VAV 7 OA CONTROLLER,Sensor,1
 Non-Parent Node Connection,9 ZONE VAV 7 OUTDOOR AIR NODE,CONTROLLER:OUTDOORAIR,9 ZONE VAV 7 OA CONTROLLER,Actuator,1
 Non-Parent Node Connection,9 ZONE VAV 7 RELIEF AIR NODE,CONTROLLER:OUTDOORAIR,9 ZONE VAV 7 OA CONTROLLER,Actuator,1
 Non-Parent Node Connection,9 ZONE VAV 7 SUPPLY INLET NODE,CONTROLLER:OUTDOORAIR,9 ZONE VAV 7 OA CONTROLLER,Sensor,1
 Non-Parent Node Connection,9 ZONE VAV 8 MIXED AIR NODE,CONTROLLER:OUTDOORAIR,9 ZONE VAV 8 OA CONTROLLER,Sensor,1
 Non-Parent Node Connection,9 ZONE VAV 8 OUTDOOR AIR NODE,CONTROLLER:OUTDOORAIR,9 ZONE VAV 8 OA CONTROLLER,Actuator,1
 Non-Parent Node Connection,9 ZONE VAV 8 RELIEF AIR NODE,CONTROLLER:OUTDOORAIR,9 ZONE VAV 8 OA CONTROLLER,Actuator,1
 Non-Parent Node Connection,9 ZONE VAV 8 SUPPLY INLET NODE,CONTROLLER:OUTDOORAIR,9 ZONE VAV 8 OA CONTROLLER,Sensor,1
 Non-Parent Node Connection,9 ZONE VAV 9 MIXED AIR NODE,CONTROLLER:OUTDOORAIR,9 ZONE VAV 9 OA CONTROLLER,Sensor,1
 Non-Parent Node Connection,9 ZONE VAV 9 OUTDOOR AIR NODE,CONTROLLER:OUTDOORAIR,9 ZONE VAV 9 OA CONTROLLER,Actuator,1
 Non-Parent Node Connection,9 ZONE VAV 9 RELIEF AIR NODE,CONTROLLER:OUTDOORAIR,9 ZONE VAV 9 OA CONTROLLER,Actuator,1
 Non-Parent Node Connection,9 ZONE VAV 9 SUPPLY INLET NODE,CONTROLLER:OUTDOORAIR,9 ZONE VAV 9 OA CONTROLLER,Sensor,1
 Non-Parent Node Connection,CHILLED WATER LOOP SECONDARY PUMP INLET WATER NODE,PUMP:VARIABLESPEED,CHILLED WATER LOOP SECONDARY PUMP,Inlet,1
 Non-Parent Node Connection,CHILLED WATER LOOP SECONDARY PUMP OUTLET WATER NODE,PUMP:VARIABLESPEED,CHILLED WATER LOOP SECONDARY PUMP,Outlet,1
 Non-Parent Node Connection,HOT WATER LOOP SUPPLY INLET NODE,PUMP:VARIABLESPEED,HOT WATER LOOP PUMP,Inlet,1
 Non-Parent Node Connection,HOT WATER LOOP PUMP OUTLET WATER NODE,PUMP:VARIABLESPEED,HOT WATER LOOP PUMP,Outlet,1
 Non-Parent Node Connection,CHILLED WATER LOOP SUPPLY INLET NODE,PUMP:CONSTANTSPEED,CHILLED WATER LOOP PRIMARY PUMP,Inlet,1
 Non-Parent Node Connection,CHILLED WATER LOOP PRIMARY PUMP OUTLET WATER NODE,PUMP:CONSTANTSPEED,CHILLED WATER LOOP PRIMARY PUMP,Outlet,1
 Non-Parent Node Connection,CONDENSER WATER LOOP SUPPLY INLET NODE,PUMP:CONSTANTSPEED,CONDENSER WATER LOOP CONSTANT PUMP,Inlet,1
 Non-Parent Node Connection,CONDENSER WATER LOOP CONSTANT PUMP OUTLET WATER NODE,PUMP:CONSTANTSPEED,CONDENSER WATER LOOP CONSTANT PUMP,Outlet,1
 Non-Parent Node Connection,OFFICE SHARED SERVICE WATER LOOP SUPPLY INLET NODE,PUMP:CONSTANTSPEED,OFFICE SHARED SERVICE WATER LOOP CIRCULATOR PUMP,Inlet,1
 Non-Parent Node Connection,OFFICE SHARED SERVICE WATER LOOP CIRCULATOR PUMP OUTLET WATER NODE,PUMP:CONSTANTSPEED,OFFICE SHARED SERVICE WATER LOOP CIRCULATOR PUMP,Outlet,1
