! Program Version,EnergyPlus, Version 23.2.0-7636e6b3e9, YMD=2024.01.24 11:06,
! Output:Meter Objects (applicable to this run)
Output:Meter,Electricity:Facility,hourly; !- [J]
Output:Meter:Cumulative,Electricity:Facility,hourly; !- [J]
Output:Meter,Electricity:Building,hourly; !- [J]
Output:Meter:Cumulative,Electricity:Building,hourly; !- [J]
Output:Meter,Electricity:Zone:ZONE OFFICE WHOLEBUILDING - LG OFFICE A  - STORY GROUND,hourly; !- [J]
Output:Meter:Cumulative,Electricity:Zone:ZONE OFFICE WHOLEBUILDING - LG OFFICE A  - STORY GROUND,hourly; !- [J]
Output:Meter,Electricity:SpaceType:OFFICE WHOLEBUILDING - LG OFFICE - COMSTOCK DOE REF 1980-2004,hourly; !- [J]
Output:Meter:Cumulative,Electricity:SpaceType:OFFICE WHOLEBUILDING - LG OFFICE - COMSTOCK DOE REF 1980-2004,hourly; !- [J]
Output:Meter,InteriorLights:Electricity,hourly; !- [J]
Output:Meter:Cumulative,InteriorLights:Electricity,hourly; !- [J]
Output:Meter,InteriorLights:Electricity:Zone:ZONE OFFICE WHOLEBUILDING - LG OFFICE A  - STORY GROUND,hourly; !- [J]
Output:Meter:Cumulative,InteriorLights:Electricity:Zone:ZONE OFFICE WHOLEBUILDING - LG OFFICE A  - STORY GROUND,hourly; !- [J]
Output:Meter,InteriorLights:Electricity:SpaceType:OFFICE WHOLEBUILDING - LG OFFICE - COMSTOCK DOE REF 1980-2004,hourly; !- [J]
Output:Meter:Cumulative,InteriorLights:Electricity:SpaceType:OFFICE WHOLEBUILDING - LG OFFICE - COMSTOCK DOE REF 1980-2004,hourly; !- [J]
Output:Meter,General:InteriorLights:Electricity,hourly; !- [J]
Output:Meter:Cumulative,General:InteriorLights:Electricity,hourly; !- [J]
Output:Meter,General:InteriorLights:Electricity:Zone:ZONE OFFICE WHOLEBUILDING - LG OFFICE A  - STORY GROUND,hourly; !- [J]
Output:Meter:Cumulative,General:InteriorLights:Electricity:Zone:ZONE OFFICE WHOLEBUILDING - LG OFFICE A  - STORY GROUND,hourly; !- [J]
Output:Meter,General:InteriorLights:Electricity:SpaceType:OFFICE WHOLEBUILDING - LG OFFICE - COMSTOCK DOE REF 1980-2004,hourly; !- [J]
Output:Meter:Cumulative,General:InteriorLights:Electricity:SpaceType:OFFICE WHOLEBUILDING - LG OFFICE - COMSTOCK DOE REF 1980-2004,hourly; !- [J]
Output:Meter,Electricity:Zone:ZONE OFFICE WHOLEBUILDING - LG OFFICE A END_B - STORY GROUND,hourly; !- [J]
Output:Meter:Cumulative,Electricity:Zone:ZONE OFFICE WHOLEBUILDING - LG OFFICE A END_B - STORY GROUND,hourly; !- [J]
Output:Meter,InteriorLights:Electricity:Zone:ZONE OFFICE WHOLEBUILDING - LG OFFICE A END_B - STORY GROUND,hourly; !- [J]
Output:Meter:Cumulative,InteriorLights:Electricity:Zone:ZONE OFFICE WHOLEBUILDING - LG OFFICE A END_B - STORY GROUND,hourly; !- [J]
Output:Meter,General:InteriorLights:Electricity:Zone:ZONE OFFICE WHOLEBUILDING - LG OFFICE A END_B - STORY GROUND,hourly; !- [J]
Output:Meter:Cumulative,General:InteriorLights:Electricity:Zone:ZONE OFFICE WHOLEBUILDING - LG OFFICE A END_B - STORY GROUND,hourly; !- [J]
Output:Meter,Electricity:Zone:ZONE OFFICE WHOLEBUILDING - LG OFFICE B END_B - STORY GROUND,hourly; !- [J]
Output:Meter:Cumulative,Electricity:Zone:ZONE OFFICE WHOLEBUILDING - LG OFFICE B END_B - STORY GROUND,hourly; !- [J]
Output:Meter,InteriorLights:Electricity:Zone:ZONE OFFICE WHOLEBUILDING - LG OFFICE B END_B - STORY GROUND,hourly; !- [J]
Output:Meter:Cumulative,InteriorLights:Electricity:Zone:ZONE OFFICE WHOLEBUILDING - LG OFFICE B END_B - STORY GROUND,hourly; !- [J]
Output:Meter,General:InteriorLights:Electricity:Zone:ZONE OFFICE WHOLEBUILDING - LG OFFICE B END_B - STORY GROUND,hourly; !- [J]
Output:Meter:Cumulative,General:InteriorLights:Electricity:Zone:ZONE OFFICE WHOLEBUILDING - LG OFFICE B END_B - STORY GROUND,hourly; !- [J]
Output:Meter,Electricity:Zone:ZONE OFFICE WHOLEBUILDING - LG OFFICE A END_A - STORY MID,hourly; !- [J]
Output:Meter:Cumulative,Electricity:Zone:ZONE OFFICE WHOLEBUILDING - LG OFFICE A END_A - STORY MID,hourly; !- [J]
Output:Meter,InteriorLights:Electricity:Zone:ZONE OFFICE WHOLEBUILDING - LG OFFICE A END_A - STORY MID,hourly; !- [J]
Output:Meter:Cumulative,InteriorLights:Electricity:Zone:ZONE OFFICE WHOLEBUILDING - LG OFFICE A END_A - STORY MID,hourly; !- [J]
Output:Meter,General:InteriorLights:Electricity:Zone:ZONE OFFICE WHOLEBUILDING - LG OFFICE A END_A - STORY MID,hourly; !- [J]
Output:Meter:Cumulative,General:InteriorLights:Electricity:Zone:ZONE OFFICE WHOLEBUILDING - LG OFFICE A END_A - STORY MID,hourly; !- [J]
Output:Meter,Electricity:Zone:ZONE OFFICE WHOLEBUILDING - LG OFFICE A  - STORY MID,hourly; !- [J]
Output:Meter:Cumulative,Electricity:Zone:ZONE OFFICE WHOLEBUILDING - LG OFFICE A  - STORY MID,hourly; !- [J]
Output:Meter,InteriorLights:Electricity:Zone:ZONE OFFICE WHOLEBUILDING - LG OFFICE A  - STORY MID,hourly; !- [J]
Output:Meter:Cumulative,InteriorLights:Electricity:Zone:ZONE OFFICE WHOLEBUILDING - LG OFFICE A  - STORY MID,hourly; !- [J]
Output:Meter,General:InteriorLights:Electricity:Zone:ZONE OFFICE WHOLEBUILDING - LG OFFICE A  - STORY MID,hourly; !- [J]
Output:Meter:Cumulative,General:InteriorLights:Electricity:Zone:ZONE OFFICE WHOLEBUILDING - LG OFFICE A  - STORY MID,hourly; !- [J]
Output:Meter,Electricity:Zone:ZONE OFFICE WHOLEBUILDING - LG OFFICE B  - STORY MID,hourly; !- [J]
Output:Meter:Cumulative,Electricity:Zone:ZONE OFFICE WHOLEBUILDING - LG OFFICE B  - STORY MID,hourly; !- [J]
Output:Meter,InteriorLights:Electricity:Zone:ZONE OFFICE WHOLEBUILDING - LG OFFICE B  - STORY MID,hourly; !- [J]
Output:Meter:Cumulative,InteriorLights:Electricity:Zone:ZONE OFFICE WHOLEBUILDING - LG OFFICE B  - STORY MID,hourly; !- [J]
Output:Meter,General:InteriorLights:Electricity:Zone:ZONE OFFICE WHOLEBUILDING - LG OFFICE B  - STORY MID,hourly; !- [J]
Output:Meter:Cumulative,General:InteriorLights:Electricity:Zone:ZONE OFFICE WHOLEBUILDING - LG OFFICE B  - STORY MID,hourly; !- [J]
Output:Meter,Electricity:Zone:ZONE OFFICE WHOLEBUILDING - LG OFFICE C  - STORY MID,hourly; !- [J]
Output:Meter:Cumulative,Electricity:Zone:ZONE OFFICE WHOLEBUILDING - LG OFFICE C  - STORY MID,hourly; !- [J]
Output:Meter,InteriorLights:Electricity:Zone:ZONE OFFICE WHOLEBUILDING - LG OFFICE C  - STORY MID,hourly; !- [J]
Output:Meter:Cumulative,InteriorLights:Electricity:Zone:ZONE OFFICE WHOLEBUILDING - LG OFFICE C  - STORY MID,hourly; !- [J]
Output:Meter,General:InteriorLights:Electricity:Zone:ZONE OFFICE WHOLEBUILDING - LG OFFICE C  - STORY MID,hourly; !- [J]
Output:Meter:Cumulative,General:InteriorLights:Electricity:Zone:ZONE OFFICE WHOLEBUILDING - LG OFFICE C  - STORY MID,hourly; !- [J]
Output:Meter,Electricity:Zone:ZONE OFFICE WHOLEBUILDING - LG OFFICE A END_B - STORY MID,hourly; !- [J]
Output:Meter:Cumulative,Electricity:Zone:ZONE OFFICE WHOLEBUILDING - LG OFFICE A END_B - STORY MID,hourly; !- [J]
Output:Meter,InteriorLights:Electricity:Zone:ZONE OFFICE WHOLEBUILDING - LG OFFICE A END_B - STORY MID,hourly; !- [J]
Output:Meter:Cumulative,InteriorLights:Electricity:Zone:ZONE OFFICE WHOLEBUILDING - LG OFFICE A END_B - STORY MID,hourly; !- [J]
Output:Meter,General:InteriorLights:Electricity:Zone:ZONE OFFICE WHOLEBUILDING - LG OFFICE A END_B - STORY MID,hourly; !- [J]
Output:Meter:Cumulative,General:InteriorLights:Electricity:Zone:ZONE OFFICE WHOLEBUILDING - LG OFFICE A END_B - STORY MID,hourly; !- [J]
Output:Meter,Electricity:Zone:ZONE OFFICE WHOLEBUILDING - LG OFFICE B END_B - STORY MID,hourly; !- [J]
Output:Meter:Cumulative,Electricity:Zone:ZONE OFFICE WHOLEBUILDING - LG OFFICE B END_B - STORY MID,hourly; !- [J]
Output:Meter,InteriorLights:Electricity:Zone:ZONE OFFICE WHOLEBUILDING - LG OFFICE B END_B - STORY MID,hourly; !- [J]
Output:Meter:Cumulative,InteriorLights:Electricity:Zone:ZONE OFFICE WHOLEBUILDING - LG OFFICE B END_B - STORY MID,hourly; !- [J]
Output:Meter,General:InteriorLights:Electricity:Zone:ZONE OFFICE WHOLEBUILDING - LG OFFICE B END_B - STORY MID,hourly; !- [J]
Output:Meter:Cumulative,General:InteriorLights:Electricity:Zone:ZONE OFFICE WHOLEBUILDING - LG OFFICE B END_B - STORY MID,hourly; !- [J]
Output:Meter,Electricity:Zone:ZONE OFFICE WHOLEBUILDING - LG OFFICE C END_B - STORY MID,hourly; !- [J]
Output:Meter:Cumulative,Electricity:Zone:ZONE OFFICE WHOLEBUILDING - LG OFFICE C END_B - STORY MID,hourly; !- [J]
Output:Meter,InteriorLights:Electricity:Zone:ZONE OFFICE WHOLEBUILDING - LG OFFICE C END_B - STORY MID,hourly; !- [J]
Output:Meter:Cumulative,InteriorLights:Electricity:Zone:ZONE OFFICE WHOLEBUILDING - LG OFFICE C END_B - STORY MID,hourly; !- [J]
Output:Meter,General:InteriorLights:Electricity:Zone:ZONE OFFICE WHOLEBUILDING - LG OFFICE C END_B - STORY MID,hourly; !- [J]
Output:Meter:Cumulative,General:InteriorLights:Electricity:Zone:ZONE OFFICE WHOLEBUILDING - LG OFFICE C END_B - STORY MID,hourly; !- [J]
Output:Meter,Electricity:Zone:ZONE OFFICE WHOLEBUILDING - LG OFFICE A END_A - STORY MID2,hourly; !- [J]
Output:Meter:Cumulative,Electricity:Zone:ZONE OFFICE WHOLEBUILDING - LG OFFICE A END_A - STORY MID2,hourly; !- [J]
Output:Meter,InteriorLights:Electricity:Zone:ZONE OFFICE WHOLEBUILDING - LG OFFICE A END_A - STORY MID2,hourly; !- [J]
Output:Meter:Cumulative,InteriorLights:Electricity:Zone:ZONE OFFICE WHOLEBUILDING - LG OFFICE A END_A - STORY MID2,hourly; !- [J]
Output:Meter,General:InteriorLights:Electricity:Zone:ZONE OFFICE WHOLEBUILDING - LG OFFICE A END_A - STORY MID2,hourly; !- [J]
Output:Meter:Cumulative,General:InteriorLights:Electricity:Zone:ZONE OFFICE WHOLEBUILDING - LG OFFICE A END_A - STORY MID2,hourly; !- [J]
Output:Meter,Electricity:Zone:ZONE OFFICE WHOLEBUILDING - LG OFFICE C END_A - STORY MID2,hourly; !- [J]
Output:Meter:Cumulative,Electricity:Zone:ZONE OFFICE WHOLEBUILDING - LG OFFICE C END_A - STORY MID2,hourly; !- [J]
Output:Meter,InteriorLights:Electricity:Zone:ZONE OFFICE WHOLEBUILDING - LG OFFICE C END_A - STORY MID2,hourly; !- [J]
Output:Meter:Cumulative,InteriorLights:Electricity:Zone:ZONE OFFICE WHOLEBUILDING - LG OFFICE C END_A - STORY MID2,hourly; !- [J]
Output:Meter,General:InteriorLights:Electricity:Zone:ZONE OFFICE WHOLEBUILDING - LG OFFICE C END_A - STORY MID2,hourly; !- [J]
Output:Meter:Cumulative,General:InteriorLights:Electricity:Zone:ZONE OFFICE WHOLEBUILDING - LG OFFICE C END_A - STORY MID2,hourly; !- [J]
Output:Meter,Electricity:Zone:ZONE OFFICE WHOLEBUILDING - LG OFFICE A  - STORY MID2,hourly; !- [J]
Output:Meter:Cumulative,Electricity:Zone:ZONE OFFICE WHOLEBUILDING - LG OFFICE A  - STORY MID2,hourly; !- [J]
Output:Meter,InteriorLights:Electricity:Zone:ZONE OFFICE WHOLEBUILDING - LG OFFICE A  - STORY MID2,hourly; !- [J]
Output:Meter:Cumulative,InteriorLights:Electricity:Zone:ZONE OFFICE WHOLEBUILDING - LG OFFICE A  - STORY MID2,hourly; !- [J]
Output:Meter,General:InteriorLights:Electricity:Zone:ZONE OFFICE WHOLEBUILDING - LG OFFICE A  - STORY MID2,hourly; !- [J]
Output:Meter:Cumulative,General:InteriorLights:Electricity:Zone:ZONE OFFICE WHOLEBUILDING - LG OFFICE A  - STORY MID2,hourly; !- [J]
Output:Meter,Electricity:Zone:ZONE OFFICE WHOLEBUILDING - LG OFFICE C  - STORY MID2,hourly; !- [J]
Output:Meter:Cumulative,Electricity:Zone:ZONE OFFICE WHOLEBUILDING - LG OFFICE C  - STORY MID2,hourly; !- [J]
Output:Meter,InteriorLights:Electricity:Zone:ZONE OFFICE WHOLEBUILDING - LG OFFICE C  - STORY MID2,hourly; !- [J]
Output:Meter:Cumulative,InteriorLights:Electricity:Zone:ZONE OFFICE WHOLEBUILDING - LG OFFICE C  - STORY MID2,hourly; !- [J]
Output:Meter,General:InteriorLights:Electricity:Zone:ZONE OFFICE WHOLEBUILDING - LG OFFICE C  - STORY MID2,hourly; !- [J]
Output:Meter:Cumulative,General:InteriorLights:Electricity:Zone:ZONE OFFICE WHOLEBUILDING - LG OFFICE C  - STORY MID2,hourly; !- [J]
Output:Meter,Electricity:Zone:ZONE OFFICE WHOLEBUILDING - LG OFFICE B END_B - STORY MID2,hourly; !- [J]
Output:Meter:Cumulative,Electricity:Zone:ZONE OFFICE WHOLEBUILDING - LG OFFICE B END_B - STORY MID2,hourly; !- [J]
Output:Meter,InteriorLights:Electricity:Zone:ZONE OFFICE WHOLEBUILDING - LG OFFICE B END_B - STORY MID2,hourly; !- [J]
Output:Meter:Cumulative,InteriorLights:Electricity:Zone:ZONE OFFICE WHOLEBUILDING - LG OFFICE B END_B - STORY MID2,hourly; !- [J]
Output:Meter,General:InteriorLights:Electricity:Zone:ZONE OFFICE WHOLEBUILDING - LG OFFICE B END_B - STORY MID2,hourly; !- [J]
Output:Meter:Cumulative,General:InteriorLights:Electricity:Zone:ZONE OFFICE WHOLEBUILDING - LG OFFICE B END_B - STORY MID2,hourly; !- [J]
Output:Meter,Electricity:Zone:ZONE OFFICE WHOLEBUILDING - LG OFFICE C END_B - STORY MID2,hourly; !- [J]
Output:Meter:Cumulative,Electricity:Zone:ZONE OFFICE WHOLEBUILDING - LG OFFICE C END_B - STORY MID2,hourly; !- [J]
Output:Meter,InteriorLights:Electricity:Zone:ZONE OFFICE WHOLEBUILDING - LG OFFICE C END_B - STORY MID2,hourly; !- [J]
Output:Meter:Cumulative,InteriorLights:Electricity:Zone:ZONE OFFICE WHOLEBUILDING - LG OFFICE C END_B - STORY MID2,hourly; !- [J]
Output:Meter,General:InteriorLights:Electricity:Zone:ZONE OFFICE WHOLEBUILDING - LG OFFICE C END_B - STORY MID2,hourly; !- [J]
Output:Meter:Cumulative,General:InteriorLights:Electricity:Zone:ZONE OFFICE WHOLEBUILDING - LG OFFICE C END_B - STORY MID2,hourly; !- [J]
Output:Meter,Electricity:Zone:ZONE OFFICE WHOLEBUILDING - LG OFFICE C END_A - STORY MID3,hourly; !- [J]
Output:Meter:Cumulative,Electricity:Zone:ZONE OFFICE WHOLEBUILDING - LG OFFICE C END_A - STORY MID3,hourly; !- [J]
Output:Meter,InteriorLights:Electricity:Zone:ZONE OFFICE WHOLEBUILDING - LG OFFICE C END_A - STORY MID3,hourly; !- [J]
Output:Meter:Cumulative,InteriorLights:Electricity:Zone:ZONE OFFICE WHOLEBUILDING - LG OFFICE C END_A - STORY MID3,hourly; !- [J]
Output:Meter,General:InteriorLights:Electricity:Zone:ZONE OFFICE WHOLEBUILDING - LG OFFICE C END_A - STORY MID3,hourly; !- [J]
Output:Meter:Cumulative,General:InteriorLights:Electricity:Zone:ZONE OFFICE WHOLEBUILDING - LG OFFICE C END_A - STORY MID3,hourly; !- [J]
Output:Meter,Electricity:Zone:ZONE OFFICE WHOLEBUILDING - LG OFFICE C END_B - STORY MID14,hourly; !- [J]
Output:Meter:Cumulative,Electricity:Zone:ZONE OFFICE WHOLEBUILDING - LG OFFICE C END_B - STORY MID14,hourly; !- [J]
Output:Meter,InteriorLights:Electricity:Zone:ZONE OFFICE WHOLEBUILDING - LG OFFICE C END_B - STORY MID14,hourly; !- [J]
Output:Meter:Cumulative,InteriorLights:Electricity:Zone:ZONE OFFICE WHOLEBUILDING - LG OFFICE C END_B - STORY MID14,hourly; !- [J]
Output:Meter,General:InteriorLights:Electricity:Zone:ZONE OFFICE WHOLEBUILDING - LG OFFICE C END_B - STORY MID14,hourly; !- [J]
Output:Meter:Cumulative,General:InteriorLights:Electricity:Zone:ZONE OFFICE WHOLEBUILDING - LG OFFICE C END_B - STORY MID14,hourly; !- [J]
Output:Meter,Electricity:Zone:ZONE OFFICE WHOLEBUILDING - LG OFFICE B  - STORY MID3,hourly; !- [J]
Output:Meter:Cumulative,Electricity:Zone:ZONE OFFICE WHOLEBUILDING - LG OFFICE B  - STORY MID3,hourly; !- [J]
Output:Meter,InteriorLights:Electricity:Zone:ZONE OFFICE WHOLEBUILDING - LG OFFICE B  - STORY MID3,hourly; !- [J]
Output:Meter:Cumulative,InteriorLights:Electricity:Zone:ZONE OFFICE WHOLEBUILDING - LG OFFICE B  - STORY MID3,hourly; !- [J]
Output:Meter,General:InteriorLights:Electricity:Zone:ZONE OFFICE WHOLEBUILDING - LG OFFICE B  - STORY MID3,hourly; !- [J]
Output:Meter:Cumulative,General:InteriorLights:Electricity:Zone:ZONE OFFICE WHOLEBUILDING - LG OFFICE B  - STORY MID3,hourly; !- [J]
Output:Meter,Electricity:Zone:ZONE OFFICE WHOLEBUILDING - LG OFFICE C  - STORY MID3,hourly; !- [J]
Output:Meter:Cumulative,Electricity:Zone:ZONE OFFICE WHOLEBUILDING - LG OFFICE C  - STORY MID3,hourly; !- [J]
Output:Meter,InteriorLights:Electricity:Zone:ZONE OFFICE WHOLEBUILDING - LG OFFICE C  - STORY MID3,hourly; !- [J]
Output:Meter:Cumulative,InteriorLights:Electricity:Zone:ZONE OFFICE WHOLEBUILDING - LG OFFICE C  - STORY MID3,hourly; !- [J]
Output:Meter,General:InteriorLights:Electricity:Zone:ZONE OFFICE WHOLEBUILDING - LG OFFICE C  - STORY MID3,hourly; !- [J]
Output:Meter:Cumulative,General:InteriorLights:Electricity:Zone:ZONE OFFICE WHOLEBUILDING - LG OFFICE C  - STORY MID3,hourly; !- [J]
Output:Meter,Electricity:Zone:ZONE OFFICE WHOLEBUILDING - LG OFFICE A END_B - STORY MID3,hourly; !- [J]
Output:Meter:Cumulative,Electricity:Zone:ZONE OFFICE WHOLEBUILDING - LG OFFICE A END_B - STORY MID3,hourly; !- [J]
Output:Meter,InteriorLights:Electricity:Zone:ZONE OFFICE WHOLEBUILDING - LG OFFICE A END_B - STORY MID3,hourly; !- [J]
Output:Meter:Cumulative,InteriorLights:Electricity:Zone:ZONE OFFICE WHOLEBUILDING - LG OFFICE A END_B - STORY MID3,hourly; !- [J]
Output:Meter,General:InteriorLights:Electricity:Zone:ZONE OFFICE WHOLEBUILDING - LG OFFICE A END_B - STORY MID3,hourly; !- [J]
Output:Meter:Cumulative,General:InteriorLights:Electricity:Zone:ZONE OFFICE WHOLEBUILDING - LG OFFICE A END_B - STORY MID3,hourly; !- [J]
Output:Meter,Electricity:Zone:ZONE OFFICE WHOLEBUILDING - LG OFFICE C END_B - STORY MID3,hourly; !- [J]
Output:Meter:Cumulative,Electricity:Zone:ZONE OFFICE WHOLEBUILDING - LG OFFICE C END_B - STORY MID3,hourly; !- [J]
Output:Meter,InteriorLights:Electricity:Zone:ZONE OFFICE WHOLEBUILDING - LG OFFICE C END_B - STORY MID3,hourly; !- [J]
Output:Meter:Cumulative,InteriorLights:Electricity:Zone:ZONE OFFICE WHOLEBUILDING - LG OFFICE C END_B - STORY MID3,hourly; !- [J]
Output:Meter,General:InteriorLights:Electricity:Zone:ZONE OFFICE WHOLEBUILDING - LG OFFICE C END_B - STORY MID3,hourly; !- [J]
Output:Meter:Cumulative,General:InteriorLights:Electricity:Zone:ZONE OFFICE WHOLEBUILDING - LG OFFICE C END_B - STORY MID3,hourly; !- [J]
Output:Meter,Electricity:Zone:ZONE OFFICE WHOLEBUILDING - LG OFFICE C END_A - STORY MID4,hourly; !- [J]
Output:Meter:Cumulative,Electricity:Zone:ZONE OFFICE WHOLEBUILDING - LG OFFICE C END_A - STORY MID4,hourly; !- [J]
Output:Meter,InteriorLights:Electricity:Zone:ZONE OFFICE WHOLEBUILDING - LG OFFICE C END_A - STORY MID4,hourly; !- [J]
Output:Meter:Cumulative,InteriorLights:Electricity:Zone:ZONE OFFICE WHOLEBUILDING - LG OFFICE C END_A - STORY MID4,hourly; !- [J]
Output:Meter,General:InteriorLights:Electricity:Zone:ZONE OFFICE WHOLEBUILDING - LG OFFICE C END_A - STORY MID4,hourly; !- [J]
Output:Meter:Cumulative,General:InteriorLights:Electricity:Zone:ZONE OFFICE WHOLEBUILDING - LG OFFICE C END_A - STORY MID4,hourly; !- [J]
Output:Meter,Electricity:Zone:ZONE OFFICE WHOLEBUILDING - LG OFFICE A  - STORY MID4,hourly; !- [J]
Output:Meter:Cumulative,Electricity:Zone:ZONE OFFICE WHOLEBUILDING - LG OFFICE A  - STORY MID4,hourly; !- [J]
Output:Meter,InteriorLights:Electricity:Zone:ZONE OFFICE WHOLEBUILDING - LG OFFICE A  - STORY MID4,hourly; !- [J]
Output:Meter:Cumulative,InteriorLights:Electricity:Zone:ZONE OFFICE WHOLEBUILDING - LG OFFICE A  - STORY MID4,hourly; !- [J]
Output:Meter,General:InteriorLights:Electricity:Zone:ZONE OFFICE WHOLEBUILDING - LG OFFICE A  - STORY MID4,hourly; !- [J]
Output:Meter:Cumulative,General:InteriorLights:Electricity:Zone:ZONE OFFICE WHOLEBUILDING - LG OFFICE A  - STORY MID4,hourly; !- [J]
Output:Meter,Electricity:Zone:ZONE OFFICE WHOLEBUILDING - LG OFFICE C  - STORY MID4,hourly; !- [J]
Output:Meter:Cumulative,Electricity:Zone:ZONE OFFICE WHOLEBUILDING - LG OFFICE C  - STORY MID4,hourly; !- [J]
Output:Meter,InteriorLights:Electricity:Zone:ZONE OFFICE WHOLEBUILDING - LG OFFICE C  - STORY MID4,hourly; !- [J]
Output:Meter:Cumulative,InteriorLights:Electricity:Zone:ZONE OFFICE WHOLEBUILDING - LG OFFICE C  - STORY MID4,hourly; !- [J]
Output:Meter,General:InteriorLights:Electricity:Zone:ZONE OFFICE WHOLEBUILDING - LG OFFICE C  - STORY MID4,hourly; !- [J]
Output:Meter:Cumulative,General:InteriorLights:Electricity:Zone:ZONE OFFICE WHOLEBUILDING - LG OFFICE C  - STORY MID4,hourly; !- [J]
Output:Meter,Electricity:Zone:ZONE OFFICE WHOLEBUILDING - LG OFFICE A END_A - STORY MID14,hourly; !- [J]
Output:Meter:Cumulative,Electricity:Zone:ZONE OFFICE WHOLEBUILDING - LG OFFICE A END_A - STORY MID14,hourly; !- [J]
Output:Meter,InteriorLights:Electricity:Zone:ZONE OFFICE WHOLEBUILDING - LG OFFICE A END_A - STORY MID14,hourly; !- [J]
Output:Meter:Cumulative,InteriorLights:Electricity:Zone:ZONE OFFICE WHOLEBUILDING - LG OFFICE A END_A - STORY MID14,hourly; !- [J]
Output:Meter,General:InteriorLights:Electricity:Zone:ZONE OFFICE WHOLEBUILDING - LG OFFICE A END_A - STORY MID14,hourly; !- [J]
Output:Meter:Cumulative,General:InteriorLights:Electricity:Zone:ZONE OFFICE WHOLEBUILDING - LG OFFICE A END_A - STORY MID14,hourly; !- [J]
Output:Meter,Electricity:Zone:ZONE OFFICE WHOLEBUILDING - LG OFFICE C END_B - STORY MID4,hourly; !- [J]
Output:Meter:Cumulative,Electricity:Zone:ZONE OFFICE WHOLEBUILDING - LG OFFICE C END_B - STORY MID4,hourly; !- [J]
Output:Meter,InteriorLights:Electricity:Zone:ZONE OFFICE WHOLEBUILDING - LG OFFICE C END_B - STORY MID4,hourly; !- [J]
Output:Meter:Cumulative,InteriorLights:Electricity:Zone:ZONE OFFICE WHOLEBUILDING - LG OFFICE C END_B - STORY MID4,hourly; !- [J]
Output:Meter,General:InteriorLights:Electricity:Zone:ZONE OFFICE WHOLEBUILDING - LG OFFICE C END_B - STORY MID4,hourly; !- [J]
Output:Meter:Cumulative,General:InteriorLights:Electricity:Zone:ZONE OFFICE WHOLEBUILDING - LG OFFICE C END_B - STORY MID4,hourly; !- [J]
Output:Meter,Electricity:Zone:ZONE OFFICE WHOLEBUILDING - LG OFFICE B END_B - STORY MID15,hourly; !- [J]
Output:Meter:Cumulative,Electricity:Zone:ZONE OFFICE WHOLEBUILDING - LG OFFICE B END_B - STORY MID15,hourly; !- [J]
Output:Meter,InteriorLights:Electricity:Zone:ZONE OFFICE WHOLEBUILDING - LG OFFICE B END_B - STORY MID15,hourly; !- [J]
Output:Meter:Cumulative,InteriorLights:Electricity:Zone:ZONE OFFICE WHOLEBUILDING - LG OFFICE B END_B - STORY MID15,hourly; !- [J]
Output:Meter,General:InteriorLights:Electricity:Zone:ZONE OFFICE WHOLEBUILDING - LG OFFICE B END_B - STORY MID15,hourly; !- [J]
Output:Meter:Cumulative,General:InteriorLights:Electricity:Zone:ZONE OFFICE WHOLEBUILDING - LG OFFICE B END_B - STORY MID15,hourly; !- [J]
Output:Meter,Electricity:Zone:ZONE OFFICE WHOLEBUILDING - LG OFFICE A  - STORY MID5,hourly; !- [J]
Output:Meter:Cumulative,Electricity:Zone:ZONE OFFICE WHOLEBUILDING - LG OFFICE A  - STORY MID5,hourly; !- [J]
Output:Meter,InteriorLights:Electricity:Zone:ZONE OFFICE WHOLEBUILDING - LG OFFICE A  - STORY MID5,hourly; !- [J]
Output:Meter:Cumulative,InteriorLights:Electricity:Zone:ZONE OFFICE WHOLEBUILDING - LG OFFICE A  - STORY MID5,hourly; !- [J]
Output:Meter,General:InteriorLights:Electricity:Zone:ZONE OFFICE WHOLEBUILDING - LG OFFICE A  - STORY MID5,hourly; !- [J]
Output:Meter:Cumulative,General:InteriorLights:Electricity:Zone:ZONE OFFICE WHOLEBUILDING - LG OFFICE A  - STORY MID5,hourly; !- [J]
Output:Meter,Electricity:Zone:ZONE OFFICE WHOLEBUILDING - LG OFFICE A END_A - STORY MID13,hourly; !- [J]
Output:Meter:Cumulative,Electricity:Zone:ZONE OFFICE WHOLEBUILDING - LG OFFICE A END_A - STORY MID13,hourly; !- [J]
Output:Meter,InteriorLights:Electricity:Zone:ZONE OFFICE WHOLEBUILDING - LG OFFICE A END_A - STORY MID13,hourly; !- [J]
Output:Meter:Cumulative,InteriorLights:Electricity:Zone:ZONE OFFICE WHOLEBUILDING - LG OFFICE A END_A - STORY MID13,hourly; !- [J]
Output:Meter,General:InteriorLights:Electricity:Zone:ZONE OFFICE WHOLEBUILDING - LG OFFICE A END_A - STORY MID13,hourly; !- [J]
Output:Meter:Cumulative,General:InteriorLights:Electricity:Zone:ZONE OFFICE WHOLEBUILDING - LG OFFICE A END_A - STORY MID13,hourly; !- [J]
Output:Meter,Electricity:Zone:ZONE OFFICE WHOLEBUILDING - LG OFFICE A END_B - STORY MID15,hourly; !- [J]
Output:Meter:Cumulative,Electricity:Zone:ZONE OFFICE WHOLEBUILDING - LG OFFICE A END_B - STORY MID15,hourly; !- [J]
Output:Meter,InteriorLights:Electricity:Zone:ZONE OFFICE WHOLEBUILDING - LG OFFICE A END_B - STORY MID15,hourly; !- [J]
Output:Meter:Cumulative,InteriorLights:Electricity:Zone:ZONE OFFICE WHOLEBUILDING - LG OFFICE A END_B - STORY MID15,hourly; !- [J]
Output:Meter,General:InteriorLights:Electricity:Zone:ZONE OFFICE WHOLEBUILDING - LG OFFICE A END_B - STORY MID15,hourly; !- [J]
Output:Meter:Cumulative,General:InteriorLights:Electricity:Zone:ZONE OFFICE WHOLEBUILDING - LG OFFICE A END_B - STORY MID15,hourly; !- [J]
Output:Meter,Electricity:Zone:ZONE OFFICE WHOLEBUILDING - LG OFFICE A  - STORY MID11,hourly; !- [J]
Output:Meter:Cumulative,Electricity:Zone:ZONE OFFICE WHOLEBUILDING - LG OFFICE A  - STORY MID11,hourly; !- [J]
Output:Meter,InteriorLights:Electricity:Zone:ZONE OFFICE WHOLEBUILDING - LG OFFICE A  - STORY MID11,hourly; !- [J]
Output:Meter:Cumulative,InteriorLights:Electricity:Zone:ZONE OFFICE WHOLEBUILDING - LG OFFICE A  - STORY MID11,hourly; !- [J]
Output:Meter,General:InteriorLights:Electricity:Zone:ZONE OFFICE WHOLEBUILDING - LG OFFICE A  - STORY MID11,hourly; !- [J]
Output:Meter:Cumulative,General:InteriorLights:Electricity:Zone:ZONE OFFICE WHOLEBUILDING - LG OFFICE A  - STORY MID11,hourly; !- [J]
Output:Meter,Electricity:Zone:ZONE OFFICE WHOLEBUILDING - LG OFFICE C END_B - STORY MID8,hourly; !- [J]
Output:Meter:Cumulative,Electricity:Zone:ZONE OFFICE WHOLEBUILDING - LG OFFICE C END_B - STORY MID8,hourly; !- [J]
Output:Meter,InteriorLights:Electricity:Zone:ZONE OFFICE WHOLEBUILDING - LG OFFICE C END_B - STORY MID8,hourly; !- [J]
Output:Meter:Cumulative,InteriorLights:Electricity:Zone:ZONE OFFICE WHOLEBUILDING - LG OFFICE C END_B - STORY MID8,hourly; !- [J]
Output:Meter,General:InteriorLights:Electricity:Zone:ZONE OFFICE WHOLEBUILDING - LG OFFICE C END_B - STORY MID8,hourly; !- [J]
Output:Meter:Cumulative,General:InteriorLights:Electricity:Zone:ZONE OFFICE WHOLEBUILDING - LG OFFICE C END_B - STORY MID8,hourly; !- [J]
Output:Meter,Electricity:Zone:ZONE OFFICE WHOLEBUILDING - LG OFFICE C END_A - STORY MID12,hourly; !- [J]
Output:Meter:Cumulative,Electricity:Zone:ZONE OFFICE WHOLEBUILDING - LG OFFICE C END_A - STORY MID12,hourly; !- [J]
Output:Meter,InteriorLights:Electricity:Zone:ZONE OFFICE WHOLEBUILDING - LG OFFICE C END_A - STORY MID12,hourly; !- [J]
Output:Meter:Cumulative,InteriorLights:Electricity:Zone:ZONE OFFICE WHOLEBUILDING - LG OFFICE C END_A - STORY MID12,hourly; !- [J]
Output:Meter,General:InteriorLights:Electricity:Zone:ZONE OFFICE WHOLEBUILDING - LG OFFICE C END_A - STORY MID12,hourly; !- [J]
Output:Meter:Cumulative,General:InteriorLights:Electricity:Zone:ZONE OFFICE WHOLEBUILDING - LG OFFICE C END_A - STORY MID12,hourly; !- [J]
Output:Meter,Electricity:Zone:ZONE OFFICE WHOLEBUILDING - LG OFFICE A  - STORY MID13,hourly; !- [J]
Output:Meter:Cumulative,Electricity:Zone:ZONE OFFICE WHOLEBUILDING - LG OFFICE A  - STORY MID13,hourly; !- [J]
Output:Meter,InteriorLights:Electricity:Zone:ZONE OFFICE WHOLEBUILDING - LG OFFICE A  - STORY MID13,hourly; !- [J]
Output:Meter:Cumulative,InteriorLights:Electricity:Zone:ZONE OFFICE WHOLEBUILDING - LG OFFICE A  - STORY MID13,hourly; !- [J]
Output:Meter,General:InteriorLights:Electricity:Zone:ZONE OFFICE WHOLEBUILDING - LG OFFICE A  - STORY MID13,hourly; !- [J]
Output:Meter:Cumulative,General:InteriorLights:Electricity:Zone:ZONE OFFICE WHOLEBUILDING - LG OFFICE A  - STORY MID13,hourly; !- [J]
Output:Meter,Electricity:Zone:ZONE OFFICE WHOLEBUILDING - LG OFFICE B  - STORY MID13,hourly; !- [J]
Output:Meter:Cumulative,Electricity:Zone:ZONE OFFICE WHOLEBUILDING - LG OFFICE B  - STORY MID13,hourly; !- [J]
Output:Meter,InteriorLights:Electricity:Zone:ZONE OFFICE WHOLEBUILDING - LG OFFICE B  - STORY MID13,hourly; !- [J]
Output:Meter:Cumulative,InteriorLights:Electricity:Zone:ZONE OFFICE WHOLEBUILDING - LG OFFICE B  - STORY MID13,hourly; !- [J]
Output:Meter,General:InteriorLights:Electricity:Zone:ZONE OFFICE WHOLEBUILDING - LG OFFICE B  - STORY MID13,hourly; !- [J]
Output:Meter:Cumulative,General:InteriorLights:Electricity:Zone:ZONE OFFICE WHOLEBUILDING - LG OFFICE B  - STORY MID13,hourly; !- [J]
Output:Meter,Electricity:Zone:ZONE OFFICE WHOLEBUILDING - LG OFFICE A END_B - STORY MID13,hourly; !- [J]
Output:Meter:Cumulative,Electricity:Zone:ZONE OFFICE WHOLEBUILDING - LG OFFICE A END_B - STORY MID13,hourly; !- [J]
Output:Meter,InteriorLights:Electricity:Zone:ZONE OFFICE WHOLEBUILDING - LG OFFICE A END_B - STORY MID13,hourly; !- [J]
Output:Meter:Cumulative,InteriorLights:Electricity:Zone:ZONE OFFICE WHOLEBUILDING - LG OFFICE A END_B - STORY MID13,hourly; !- [J]
Output:Meter,General:InteriorLights:Electricity:Zone:ZONE OFFICE WHOLEBUILDING - LG OFFICE A END_B - STORY MID13,hourly; !- [J]
Output:Meter:Cumulative,General:InteriorLights:Electricity:Zone:ZONE OFFICE WHOLEBUILDING - LG OFFICE A END_B - STORY MID13,hourly; !- [J]
Output:Meter,Electricity:Zone:ZONE OFFICE WHOLEBUILDING - LG OFFICE C END_A - STORY MID13,hourly; !- [J]
Output:Meter:Cumulative,Electricity:Zone:ZONE OFFICE WHOLEBUILDING - LG OFFICE C END_A - STORY MID13,hourly; !- [J]
Output:Meter,InteriorLights:Electricity:Zone:ZONE OFFICE WHOLEBUILDING - LG OFFICE C END_A - STORY MID13,hourly; !- [J]
Output:Meter:Cumulative,InteriorLights:Electricity:Zone:ZONE OFFICE WHOLEBUILDING - LG OFFICE C END_A - STORY MID13,hourly; !- [J]
Output:Meter,General:InteriorLights:Electricity:Zone:ZONE OFFICE WHOLEBUILDING - LG OFFICE C END_A - STORY MID13,hourly; !- [J]
Output:Meter:Cumulative,General:InteriorLights:Electricity:Zone:ZONE OFFICE WHOLEBUILDING - LG OFFICE C END_A - STORY MID13,hourly; !- [J]
Output:Meter,Electricity:Zone:ZONE OFFICE WHOLEBUILDING - LG OFFICE B  - STORY MID9,hourly; !- [J]
Output:Meter:Cumulative,Electricity:Zone:ZONE OFFICE WHOLEBUILDING - LG OFFICE B  - STORY MID9,hourly; !- [J]
Output:Meter,InteriorLights:Electricity:Zone:ZONE OFFICE WHOLEBUILDING - LG OFFICE B  - STORY MID9,hourly; !- [J]
Output:Meter:Cumulative,InteriorLights:Electricity:Zone:ZONE OFFICE WHOLEBUILDING - LG OFFICE B  - STORY MID9,hourly; !- [J]
Output:Meter,General:InteriorLights:Electricity:Zone:ZONE OFFICE WHOLEBUILDING - LG OFFICE B  - STORY MID9,hourly; !- [J]
Output:Meter:Cumulative,General:InteriorLights:Electricity:Zone:ZONE OFFICE WHOLEBUILDING - LG OFFICE B  - STORY MID9,hourly; !- [J]
Output:Meter,Electricity:Zone:ZONE OFFICE WHOLEBUILDING - LG OFFICE B END_A - STORY MID14,hourly; !- [J]
Output:Meter:Cumulative,Electricity:Zone:ZONE OFFICE WHOLEBUILDING - LG OFFICE B END_A - STORY MID14,hourly; !- [J]
Output:Meter,InteriorLights:Electricity:Zone:ZONE OFFICE WHOLEBUILDING - LG OFFICE B END_A - STORY MID14,hourly; !- [J]
Output:Meter:Cumulative,InteriorLights:Electricity:Zone:ZONE OFFICE WHOLEBUILDING - LG OFFICE B END_A - STORY MID14,hourly; !- [J]
Output:Meter,General:InteriorLights:Electricity:Zone:ZONE OFFICE WHOLEBUILDING - LG OFFICE B END_A - STORY MID14,hourly; !- [J]
Output:Meter:Cumulative,General:InteriorLights:Electricity:Zone:ZONE OFFICE WHOLEBUILDING - LG OFFICE B END_A - STORY MID14,hourly; !- [J]
Output:Meter,Electricity:Zone:ZONE OFFICE WHOLEBUILDING - LG OFFICE C END_A - STORY MID18,hourly; !- [J]
Output:Meter:Cumulative,Electricity:Zone:ZONE OFFICE WHOLEBUILDING - LG OFFICE C END_A - STORY MID18,hourly; !- [J]
Output:Meter,InteriorLights:Electricity:Zone:ZONE OFFICE WHOLEBUILDING - LG OFFICE C END_A - STORY MID18,hourly; !- [J]
Output:Meter:Cumulative,InteriorLights:Electricity:Zone:ZONE OFFICE WHOLEBUILDING - LG OFFICE C END_A - STORY MID18,hourly; !- [J]
Output:Meter,General:InteriorLights:Electricity:Zone:ZONE OFFICE WHOLEBUILDING - LG OFFICE C END_A - STORY MID18,hourly; !- [J]
Output:Meter:Cumulative,General:InteriorLights:Electricity:Zone:ZONE OFFICE WHOLEBUILDING - LG OFFICE C END_A - STORY MID18,hourly; !- [J]
Output:Meter,Electricity:Zone:ZONE OFFICE WHOLEBUILDING - LG OFFICE C END_B - STORY MID10,hourly; !- [J]
Output:Meter:Cumulative,Electricity:Zone:ZONE OFFICE WHOLEBUILDING - LG OFFICE C END_B - STORY MID10,hourly; !- [J]
Output:Meter,InteriorLights:Electricity:Zone:ZONE OFFICE WHOLEBUILDING - LG OFFICE C END_B - STORY MID10,hourly; !- [J]
Output:Meter:Cumulative,InteriorLights:Electricity:Zone:ZONE OFFICE WHOLEBUILDING - LG OFFICE C END_B - STORY MID10,hourly; !- [J]
Output:Meter,General:InteriorLights:Electricity:Zone:ZONE OFFICE WHOLEBUILDING - LG OFFICE C END_B - STORY MID10,hourly; !- [J]
Output:Meter:Cumulative,General:InteriorLights:Electricity:Zone:ZONE OFFICE WHOLEBUILDING - LG OFFICE C END_B - STORY MID10,hourly; !- [J]
Output:Meter,Electricity:Zone:ZONE OFFICE WHOLEBUILDING - LG OFFICE A  - STORY MID14,hourly; !- [J]
Output:Meter:Cumulative,Electricity:Zone:ZONE OFFICE WHOLEBUILDING - LG OFFICE A  - STORY MID14,hourly; !- [J]
Output:Meter,InteriorLights:Electricity:Zone:ZONE OFFICE WHOLEBUILDING - LG OFFICE A  - STORY MID14,hourly; !- [J]
Output:Meter:Cumulative,InteriorLights:Electricity:Zone:ZONE OFFICE WHOLEBUILDING - LG OFFICE A  - STORY MID14,hourly; !- [J]
Output:Meter,General:InteriorLights:Electricity:Zone:ZONE OFFICE WHOLEBUILDING - LG OFFICE A  - STORY MID14,hourly; !- [J]
Output:Meter:Cumulative,General:InteriorLights:Electricity:Zone:ZONE OFFICE WHOLEBUILDING - LG OFFICE A  - STORY MID14,hourly; !- [J]
Output:Meter,Electricity:Zone:ZONE OFFICE WHOLEBUILDING - LG OFFICE C  - STORY MID14,hourly; !- [J]
Output:Meter:Cumulative,Electricity:Zone:ZONE OFFICE WHOLEBUILDING - LG OFFICE C  - STORY MID14,hourly; !- [J]
Output:Meter,InteriorLights:Electricity:Zone:ZONE OFFICE WHOLEBUILDING - LG OFFICE C  - STORY MID14,hourly; !- [J]
Output:Meter:Cumulative,InteriorLights:Electricity:Zone:ZONE OFFICE WHOLEBUILDING - LG OFFICE C  - STORY MID14,hourly; !- [J]
Output:Meter,General:InteriorLights:Electricity:Zone:ZONE OFFICE WHOLEBUILDING - LG OFFICE C  - STORY MID14,hourly; !- [J]
Output:Meter:Cumulative,General:InteriorLights:Electricity:Zone:ZONE OFFICE WHOLEBUILDING - LG OFFICE C  - STORY MID14,hourly; !- [J]
Output:Meter,Electricity:Zone:ZONE OFFICE WHOLEBUILDING - LG OFFICE C END_A - STORY MID7,hourly; !- [J]
Output:Meter:Cumulative,Electricity:Zone:ZONE OFFICE WHOLEBUILDING - LG OFFICE C END_A - STORY MID7,hourly; !- [J]
Output:Meter,InteriorLights:Electricity:Zone:ZONE OFFICE WHOLEBUILDING - LG OFFICE C END_A - STORY MID7,hourly; !- [J]
Output:Meter:Cumulative,InteriorLights:Electricity:Zone:ZONE OFFICE WHOLEBUILDING - LG OFFICE C END_A - STORY MID7,hourly; !- [J]
Output:Meter,General:InteriorLights:Electricity:Zone:ZONE OFFICE WHOLEBUILDING - LG OFFICE C END_A - STORY MID7,hourly; !- [J]
Output:Meter:Cumulative,General:InteriorLights:Electricity:Zone:ZONE OFFICE WHOLEBUILDING - LG OFFICE C END_A - STORY MID7,hourly; !- [J]
Output:Meter,Electricity:Zone:ZONE OFFICE WHOLEBUILDING - LG OFFICE B END_B - STORY MID14,hourly; !- [J]
Output:Meter:Cumulative,Electricity:Zone:ZONE OFFICE WHOLEBUILDING - LG OFFICE B END_B - STORY MID14,hourly; !- [J]
Output:Meter,InteriorLights:Electricity:Zone:ZONE OFFICE WHOLEBUILDING - LG OFFICE B END_B - STORY MID14,hourly; !- [J]
Output:Meter:Cumulative,InteriorLights:Electricity:Zone:ZONE OFFICE WHOLEBUILDING - LG OFFICE B END_B - STORY MID14,hourly; !- [J]
Output:Meter,General:InteriorLights:Electricity:Zone:ZONE OFFICE WHOLEBUILDING - LG OFFICE B END_B - STORY MID14,hourly; !- [J]
Output:Meter:Cumulative,General:InteriorLights:Electricity:Zone:ZONE OFFICE WHOLEBUILDING - LG OFFICE B END_B - STORY MID14,hourly; !- [J]
Output:Meter,Electricity:Zone:ZONE OFFICE WHOLEBUILDING - LG OFFICE A END_A - STORY MID3,hourly; !- [J]
Output:Meter:Cumulative,Electricity:Zone:ZONE OFFICE WHOLEBUILDING - LG OFFICE A END_A - STORY MID3,hourly; !- [J]
Output:Meter,InteriorLights:Electricity:Zone:ZONE OFFICE WHOLEBUILDING - LG OFFICE A END_A - STORY MID3,hourly; !- [J]
Output:Meter:Cumulative,InteriorLights:Electricity:Zone:ZONE OFFICE WHOLEBUILDING - LG OFFICE A END_A - STORY MID3,hourly; !- [J]
Output:Meter,General:InteriorLights:Electricity:Zone:ZONE OFFICE WHOLEBUILDING - LG OFFICE A END_A - STORY MID3,hourly; !- [J]
Output:Meter:Cumulative,General:InteriorLights:Electricity:Zone:ZONE OFFICE WHOLEBUILDING - LG OFFICE A END_A - STORY MID3,hourly; !- [J]
Output:Meter,Electricity:Zone:ZONE OFFICE WHOLEBUILDING - LG OFFICE C END_A - STORY MID14,hourly; !- [J]
Output:Meter:Cumulative,Electricity:Zone:ZONE OFFICE WHOLEBUILDING - LG OFFICE C END_A - STORY MID14,hourly; !- [J]
Output:Meter,InteriorLights:Electricity:Zone:ZONE OFFICE WHOLEBUILDING - LG OFFICE C END_A - STORY MID14,hourly; !- [J]
Output:Meter:Cumulative,InteriorLights:Electricity:Zone:ZONE OFFICE WHOLEBUILDING - LG OFFICE C END_A - STORY MID14,hourly; !- [J]
Output:Meter,General:InteriorLights:Electricity:Zone:ZONE OFFICE WHOLEBUILDING - LG OFFICE C END_A - STORY MID14,hourly; !- [J]
Output:Meter:Cumulative,General:InteriorLights:Electricity:Zone:ZONE OFFICE WHOLEBUILDING - LG OFFICE C END_A - STORY MID14,hourly; !- [J]
Output:Meter,Electricity:Zone:ZONE OFFICE WHOLEBUILDING - LG OFFICE B END_A - STORY MID15,hourly; !- [J]
Output:Meter:Cumulative,Electricity:Zone:ZONE OFFICE WHOLEBUILDING - LG OFFICE B END_A - STORY MID15,hourly; !- [J]
Output:Meter,InteriorLights:Electricity:Zone:ZONE OFFICE WHOLEBUILDING - LG OFFICE B END_A - STORY MID15,hourly; !- [J]
Output:Meter:Cumulative,InteriorLights:Electricity:Zone:ZONE OFFICE WHOLEBUILDING - LG OFFICE B END_A - STORY MID15,hourly; !- [J]
Output:Meter,General:InteriorLights:Electricity:Zone:ZONE OFFICE WHOLEBUILDING - LG OFFICE B END_A - STORY MID15,hourly; !- [J]
Output:Meter:Cumulative,General:InteriorLights:Electricity:Zone:ZONE OFFICE WHOLEBUILDING - LG OFFICE B END_A - STORY MID15,hourly; !- [J]
Output:Meter,Electricity:Zone:ZONE OFFICE WHOLEBUILDING - LG OFFICE C END_A - STORY TOP,hourly; !- [J]
Output:Meter:Cumulative,Electricity:Zone:ZONE OFFICE WHOLEBUILDING - LG OFFICE C END_A - STORY TOP,hourly; !- [J]
Output:Meter,InteriorLights:Electricity:Zone:ZONE OFFICE WHOLEBUILDING - LG OFFICE C END_A - STORY TOP,hourly; !- [J]
Output:Meter:Cumulative,InteriorLights:Electricity:Zone:ZONE OFFICE WHOLEBUILDING - LG OFFICE C END_A - STORY TOP,hourly; !- [J]
Output:Meter,General:InteriorLights:Electricity:Zone:ZONE OFFICE WHOLEBUILDING - LG OFFICE C END_A - STORY TOP,hourly; !- [J]
Output:Meter:Cumulative,General:InteriorLights:Electricity:Zone:ZONE OFFICE WHOLEBUILDING - LG OFFICE C END_A - STORY TOP,hourly; !- [J]
Output:Meter,Electricity:Zone:ZONE OFFICE WHOLEBUILDING - LG OFFICE C END_A - STORY MID8,hourly; !- [J]
Output:Meter:Cumulative,Electricity:Zone:ZONE OFFICE WHOLEBUILDING - LG OFFICE C END_A - STORY MID8,hourly; !- [J]
Output:Meter,InteriorLights:Electricity:Zone:ZONE OFFICE WHOLEBUILDING - LG OFFICE C END_A - STORY MID8,hourly; !- [J]
Output:Meter:Cumulative,InteriorLights:Electricity:Zone:ZONE OFFICE WHOLEBUILDING - LG OFFICE C END_A - STORY MID8,hourly; !- [J]
Output:Meter,General:InteriorLights:Electricity:Zone:ZONE OFFICE WHOLEBUILDING - LG OFFICE C END_A - STORY MID8,hourly; !- [J]
Output:Meter:Cumulative,General:InteriorLights:Electricity:Zone:ZONE OFFICE WHOLEBUILDING - LG OFFICE C END_A - STORY MID8,hourly; !- [J]
Output:Meter,Electricity:Zone:ZONE OFFICE WHOLEBUILDING - LG OFFICE C END_B - STORY MID15,hourly; !- [J]
Output:Meter:Cumulative,Electricity:Zone:ZONE OFFICE WHOLEBUILDING - LG OFFICE C END_B - STORY MID15,hourly; !- [J]
Output:Meter,InteriorLights:Electricity:Zone:ZONE OFFICE WHOLEBUILDING - LG OFFICE C END_B - STORY MID15,hourly; !- [J]
Output:Meter:Cumulative,InteriorLights:Electricity:Zone:ZONE OFFICE WHOLEBUILDING - LG OFFICE C END_B - STORY MID15,hourly; !- [J]
Output:Meter,General:InteriorLights:Electricity:Zone:ZONE OFFICE WHOLEBUILDING - LG OFFICE C END_B - STORY MID15,hourly; !- [J]
Output:Meter:Cumulative,General:InteriorLights:Electricity:Zone:ZONE OFFICE WHOLEBUILDING - LG OFFICE C END_B - STORY MID15,hourly; !- [J]
Output:Meter,Electricity:Zone:ZONE OFFICE WHOLEBUILDING - LG OFFICE A  - STORY MID3,hourly; !- [J]
Output:Meter:Cumulative,Electricity:Zone:ZONE OFFICE WHOLEBUILDING - LG OFFICE A  - STORY MID3,hourly; !- [J]
Output:Meter,InteriorLights:Electricity:Zone:ZONE OFFICE WHOLEBUILDING - LG OFFICE A  - STORY MID3,hourly; !- [J]
Output:Meter:Cumulative,InteriorLights:Electricity:Zone:ZONE OFFICE WHOLEBUILDING - LG OFFICE A  - STORY MID3,hourly; !- [J]
Output:Meter,General:InteriorLights:Electricity:Zone:ZONE OFFICE WHOLEBUILDING - LG OFFICE A  - STORY MID3,hourly; !- [J]
Output:Meter:Cumulative,General:InteriorLights:Electricity:Zone:ZONE OFFICE WHOLEBUILDING - LG OFFICE A  - STORY MID3,hourly; !- [J]
Output:Meter,Electricity:Zone:ZONE OFFICE WHOLEBUILDING - LG OFFICE C END_A - STORY MID16,hourly; !- [J]
Output:Meter:Cumulative,Electricity:Zone:ZONE OFFICE WHOLEBUILDING - LG OFFICE C END_A - STORY MID16,hourly; !- [J]
Output:Meter,InteriorLights:Electricity:Zone:ZONE OFFICE WHOLEBUILDING - LG OFFICE C END_A - STORY MID16,hourly; !- [J]
Output:Meter:Cumulative,InteriorLights:Electricity:Zone:ZONE OFFICE WHOLEBUILDING - LG OFFICE C END_A - STORY MID16,hourly; !- [J]
Output:Meter,General:InteriorLights:Electricity:Zone:ZONE OFFICE WHOLEBUILDING - LG OFFICE C END_A - STORY MID16,hourly; !- [J]
Output:Meter:Cumulative,General:InteriorLights:Electricity:Zone:ZONE OFFICE WHOLEBUILDING - LG OFFICE C END_A - STORY MID16,hourly; !- [J]
Output:Meter,Electricity:Zone:ZONE OFFICE WHOLEBUILDING - LG OFFICE B END_A - STORY MID4,hourly; !- [J]
Output:Meter:Cumulative,Electricity:Zone:ZONE OFFICE WHOLEBUILDING - LG OFFICE B END_A - STORY MID4,hourly; !- [J]
Output:Meter,InteriorLights:Electricity:Zone:ZONE OFFICE WHOLEBUILDING - LG OFFICE B END_A - STORY MID4,hourly; !- [J]
Output:Meter:Cumulative,InteriorLights:Electricity:Zone:ZONE OFFICE WHOLEBUILDING - LG OFFICE B END_A - STORY MID4,hourly; !- [J]
Output:Meter,General:InteriorLights:Electricity:Zone:ZONE OFFICE WHOLEBUILDING - LG OFFICE B END_A - STORY MID4,hourly; !- [J]
Output:Meter:Cumulative,General:InteriorLights:Electricity:Zone:ZONE OFFICE WHOLEBUILDING - LG OFFICE B END_A - STORY MID4,hourly; !- [J]
Output:Meter,Electricity:Zone:ZONE OFFICE WHOLEBUILDING - LG OFFICE B END_A - STORY MID12,hourly; !- [J]
Output:Meter:Cumulative,Electricity:Zone:ZONE OFFICE WHOLEBUILDING - LG OFFICE B END_A - STORY MID12,hourly; !- [J]
Output:Meter,InteriorLights:Electricity:Zone:ZONE OFFICE WHOLEBUILDING - LG OFFICE B END_A - STORY MID12,hourly; !- [J]
Output:Meter:Cumulative,InteriorLights:Electricity:Zone:ZONE OFFICE WHOLEBUILDING - LG OFFICE B END_A - STORY MID12,hourly; !- [J]
Output:Meter,General:InteriorLights:Electricity:Zone:ZONE OFFICE WHOLEBUILDING - LG OFFICE B END_A - STORY MID12,hourly; !- [J]
Output:Meter:Cumulative,General:InteriorLights:Electricity:Zone:ZONE OFFICE WHOLEBUILDING - LG OFFICE B END_A - STORY MID12,hourly; !- [J]
Output:Meter,Electricity:Zone:ZONE OFFICE WHOLEBUILDING - LG OFFICE B END_B - STORY MID13,hourly; !- [J]
Output:Meter:Cumulative,Electricity:Zone:ZONE OFFICE WHOLEBUILDING - LG OFFICE B END_B - STORY MID13,hourly; !- [J]
Output:Meter,InteriorLights:Electricity:Zone:ZONE OFFICE WHOLEBUILDING - LG OFFICE B END_B - STORY MID13,hourly; !- [J]
Output:Meter:Cumulative,InteriorLights:Electricity:Zone:ZONE OFFICE WHOLEBUILDING - LG OFFICE B END_B - STORY MID13,hourly; !- [J]
Output:Meter,General:InteriorLights:Electricity:Zone:ZONE OFFICE WHOLEBUILDING - LG OFFICE B END_B - STORY MID13,hourly; !- [J]
Output:Meter:Cumulative,General:InteriorLights:Electricity:Zone:ZONE OFFICE WHOLEBUILDING - LG OFFICE B END_B - STORY MID13,hourly; !- [J]
Output:Meter,Electricity:Zone:ZONE OFFICE WHOLEBUILDING - LG OFFICE C END_B - STORY MID18,hourly; !- [J]
Output:Meter:Cumulative,Electricity:Zone:ZONE OFFICE WHOLEBUILDING - LG OFFICE C END_B - STORY MID18,hourly; !- [J]
Output:Meter,InteriorLights:Electricity:Zone:ZONE OFFICE WHOLEBUILDING - LG OFFICE C END_B - STORY MID18,hourly; !- [J]
Output:Meter:Cumulative,InteriorLights:Electricity:Zone:ZONE OFFICE WHOLEBUILDING - LG OFFICE C END_B - STORY MID18,hourly; !- [J]
Output:Meter,General:InteriorLights:Electricity:Zone:ZONE OFFICE WHOLEBUILDING - LG OFFICE C END_B - STORY MID18,hourly; !- [J]
Output:Meter:Cumulative,General:InteriorLights:Electricity:Zone:ZONE OFFICE WHOLEBUILDING - LG OFFICE C END_B - STORY MID18,hourly; !- [J]
Output:Meter,Electricity:Zone:ZONE OFFICE WHOLEBUILDING - LG OFFICE B END_A - STORY MID13,hourly; !- [J]
Output:Meter:Cumulative,Electricity:Zone:ZONE OFFICE WHOLEBUILDING - LG OFFICE B END_A - STORY MID13,hourly; !- [J]
Output:Meter,InteriorLights:Electricity:Zone:ZONE OFFICE WHOLEBUILDING - LG OFFICE B END_A - STORY MID13,hourly; !- [J]
Output:Meter:Cumulative,InteriorLights:Electricity:Zone:ZONE OFFICE WHOLEBUILDING - LG OFFICE B END_A - STORY MID13,hourly; !- [J]
Output:Meter,General:InteriorLights:Electricity:Zone:ZONE OFFICE WHOLEBUILDING - LG OFFICE B END_A - STORY MID13,hourly; !- [J]
Output:Meter:Cumulative,General:InteriorLights:Electricity:Zone:ZONE OFFICE WHOLEBUILDING - LG OFFICE B END_A - STORY MID13,hourly; !- [J]
Output:Meter,Electricity:Zone:ZONE OFFICE WHOLEBUILDING - LG OFFICE B  - STORY MID17,hourly; !- [J]
Output:Meter:Cumulative,Electricity:Zone:ZONE OFFICE WHOLEBUILDING - LG OFFICE B  - STORY MID17,hourly; !- [J]
Output:Meter,InteriorLights:Electricity:Zone:ZONE OFFICE WHOLEBUILDING - LG OFFICE B  - STORY MID17,hourly; !- [J]
Output:Meter:Cumulative,InteriorLights:Electricity:Zone:ZONE OFFICE WHOLEBUILDING - LG OFFICE B  - STORY MID17,hourly; !- [J]
Output:Meter,General:InteriorLights:Electricity:Zone:ZONE OFFICE WHOLEBUILDING - LG OFFICE B  - STORY MID17,hourly; !- [J]
Output:Meter:Cumulative,General:InteriorLights:Electricity:Zone:ZONE OFFICE WHOLEBUILDING - LG OFFICE B  - STORY MID17,hourly; !- [J]
Output:Meter,Electricity:Zone:ZONE OFFICE WHOLEBUILDING - LG OFFICE C  - STORY MID18,hourly; !- [J]
Output:Meter:Cumulative,Electricity:Zone:ZONE OFFICE WHOLEBUILDING - LG OFFICE C  - STORY MID18,hourly; !- [J]
Output:Meter,InteriorLights:Electricity:Zone:ZONE OFFICE WHOLEBUILDING - LG OFFICE C  - STORY MID18,hourly; !- [J]
Output:Meter:Cumulative,InteriorLights:Electricity:Zone:ZONE OFFICE WHOLEBUILDING - LG OFFICE C  - STORY MID18,hourly; !- [J]
Output:Meter,General:InteriorLights:Electricity:Zone:ZONE OFFICE WHOLEBUILDING - LG OFFICE C  - STORY MID18,hourly; !- [J]
Output:Meter:Cumulative,General:InteriorLights:Electricity:Zone:ZONE OFFICE WHOLEBUILDING - LG OFFICE C  - STORY MID18,hourly; !- [J]
Output:Meter,Electricity:Zone:ZONE OFFICE WHOLEBUILDING - LG OFFICE B END_A - STORY MID16,hourly; !- [J]
Output:Meter:Cumulative,Electricity:Zone:ZONE OFFICE WHOLEBUILDING - LG OFFICE B END_A - STORY MID16,hourly; !- [J]
Output:Meter,InteriorLights:Electricity:Zone:ZONE OFFICE WHOLEBUILDING - LG OFFICE B END_A - STORY MID16,hourly; !- [J]
Output:Meter:Cumulative,InteriorLights:Electricity:Zone:ZONE OFFICE WHOLEBUILDING - LG OFFICE B END_A - STORY MID16,hourly; !- [J]
Output:Meter,General:InteriorLights:Electricity:Zone:ZONE OFFICE WHOLEBUILDING - LG OFFICE B END_A - STORY MID16,hourly; !- [J]
Output:Meter:Cumulative,General:InteriorLights:Electricity:Zone:ZONE OFFICE WHOLEBUILDING - LG OFFICE B END_A - STORY MID16,hourly; !- [J]
Output:Meter,Electricity:Zone:ZONE OFFICE WHOLEBUILDING - LG OFFICE B  - STORY MID16,hourly; !- [J]
Output:Meter:Cumulative,Electricity:Zone:ZONE OFFICE WHOLEBUILDING - LG OFFICE B  - STORY MID16,hourly; !- [J]
Output:Meter,InteriorLights:Electricity:Zone:ZONE OFFICE WHOLEBUILDING - LG OFFICE B  - STORY MID16,hourly; !- [J]
Output:Meter:Cumulative,InteriorLights:Electricity:Zone:ZONE OFFICE WHOLEBUILDING - LG OFFICE B  - STORY MID16,hourly; !- [J]
Output:Meter,General:InteriorLights:Electricity:Zone:ZONE OFFICE WHOLEBUILDING - LG OFFICE B  - STORY MID16,hourly; !- [J]
Output:Meter:Cumulative,General:InteriorLights:Electricity:Zone:ZONE OFFICE WHOLEBUILDING - LG OFFICE B  - STORY MID16,hourly; !- [J]
Output:Meter,Electricity:Zone:ZONE OFFICE WHOLEBUILDING - LG OFFICE A  - STORY MID10,hourly; !- [J]
Output:Meter:Cumulative,Electricity:Zone:ZONE OFFICE WHOLEBUILDING - LG OFFICE A  - STORY MID10,hourly; !- [J]
Output:Meter,InteriorLights:Electricity:Zone:ZONE OFFICE WHOLEBUILDING - LG OFFICE A  - STORY MID10,hourly; !- [J]
Output:Meter:Cumulative,InteriorLights:Electricity:Zone:ZONE OFFICE WHOLEBUILDING - LG OFFICE A  - STORY MID10,hourly; !- [J]
Output:Meter,General:InteriorLights:Electricity:Zone:ZONE OFFICE WHOLEBUILDING - LG OFFICE A  - STORY MID10,hourly; !- [J]
Output:Meter:Cumulative,General:InteriorLights:Electricity:Zone:ZONE OFFICE WHOLEBUILDING - LG OFFICE A  - STORY MID10,hourly; !- [J]
Output:Meter,Electricity:Zone:ZONE OFFICE WHOLEBUILDING - LG OFFICE A END_A - STORY MID16,hourly; !- [J]
Output:Meter:Cumulative,Electricity:Zone:ZONE OFFICE WHOLEBUILDING - LG OFFICE A END_A - STORY MID16,hourly; !- [J]
Output:Meter,InteriorLights:Electricity:Zone:ZONE OFFICE WHOLEBUILDING - LG OFFICE A END_A - STORY MID16,hourly; !- [J]
Output:Meter:Cumulative,InteriorLights:Electricity:Zone:ZONE OFFICE WHOLEBUILDING - LG OFFICE A END_A - STORY MID16,hourly; !- [J]
Output:Meter,General:InteriorLights:Electricity:Zone:ZONE OFFICE WHOLEBUILDING - LG OFFICE A END_A - STORY MID16,hourly; !- [J]
Output:Meter:Cumulative,General:InteriorLights:Electricity:Zone:ZONE OFFICE WHOLEBUILDING - LG OFFICE A END_A - STORY MID16,hourly; !- [J]
Output:Meter,Electricity:Zone:ZONE OFFICE WHOLEBUILDING - LG OFFICE C END_A - STORY MID10,hourly; !- [J]
Output:Meter:Cumulative,Electricity:Zone:ZONE OFFICE WHOLEBUILDING - LG OFFICE C END_A - STORY MID10,hourly; !- [J]
Output:Meter,InteriorLights:Electricity:Zone:ZONE OFFICE WHOLEBUILDING - LG OFFICE C END_A - STORY MID10,hourly; !- [J]
Output:Meter:Cumulative,InteriorLights:Electricity:Zone:ZONE OFFICE WHOLEBUILDING - LG OFFICE C END_A - STORY MID10,hourly; !- [J]
Output:Meter,General:InteriorLights:Electricity:Zone:ZONE OFFICE WHOLEBUILDING - LG OFFICE C END_A - STORY MID10,hourly; !- [J]
Output:Meter:Cumulative,General:InteriorLights:Electricity:Zone:ZONE OFFICE WHOLEBUILDING - LG OFFICE C END_A - STORY MID10,hourly; !- [J]
Output:Meter,Electricity:Zone:ZONE OFFICE WHOLEBUILDING - LG OFFICE B END_A - STORY MID7,hourly; !- [J]
Output:Meter:Cumulative,Electricity:Zone:ZONE OFFICE WHOLEBUILDING - LG OFFICE B END_A - STORY MID7,hourly; !- [J]
Output:Meter,InteriorLights:Electricity:Zone:ZONE OFFICE WHOLEBUILDING - LG OFFICE B END_A - STORY MID7,hourly; !- [J]
Output:Meter:Cumulative,InteriorLights:Electricity:Zone:ZONE OFFICE WHOLEBUILDING - LG OFFICE B END_A - STORY MID7,hourly; !- [J]
Output:Meter,General:InteriorLights:Electricity:Zone:ZONE OFFICE WHOLEBUILDING - LG OFFICE B END_A - STORY MID7,hourly; !- [J]
Output:Meter:Cumulative,General:InteriorLights:Electricity:Zone:ZONE OFFICE WHOLEBUILDING - LG OFFICE B END_A - STORY MID7,hourly; !- [J]
Output:Meter,Electricity:Zone:ZONE OFFICE WHOLEBUILDING - LG OFFICE A END_B - STORY MID18,hourly; !- [J]
Output:Meter:Cumulative,Electricity:Zone:ZONE OFFICE WHOLEBUILDING - LG OFFICE A END_B - STORY MID18,hourly; !- [J]
Output:Meter,InteriorLights:Electricity:Zone:ZONE OFFICE WHOLEBUILDING - LG OFFICE A END_B - STORY MID18,hourly; !- [J]
Output:Meter:Cumulative,InteriorLights:Electricity:Zone:ZONE OFFICE WHOLEBUILDING - LG OFFICE A END_B - STORY MID18,hourly; !- [J]
Output:Meter,General:InteriorLights:Electricity:Zone:ZONE OFFICE WHOLEBUILDING - LG OFFICE A END_B - STORY MID18,hourly; !- [J]
Output:Meter:Cumulative,General:InteriorLights:Electricity:Zone:ZONE OFFICE WHOLEBUILDING - LG OFFICE A END_B - STORY MID18,hourly; !- [J]
Output:Meter,Electricity:Zone:ZONE OFFICE WHOLEBUILDING - LG OFFICE B END_A - STORY MID3,hourly; !- [J]
Output:Meter:Cumulative,Electricity:Zone:ZONE OFFICE WHOLEBUILDING - LG OFFICE B END_A - STORY MID3,hourly; !- [J]
Output:Meter,InteriorLights:Electricity:Zone:ZONE OFFICE WHOLEBUILDING - LG OFFICE B END_A - STORY MID3,hourly; !- [J]
Output:Meter:Cumulative,InteriorLights:Electricity:Zone:ZONE OFFICE WHOLEBUILDING - LG OFFICE B END_A - STORY MID3,hourly; !- [J]
Output:Meter,General:InteriorLights:Electricity:Zone:ZONE OFFICE WHOLEBUILDING - LG OFFICE B END_A - STORY MID3,hourly; !- [J]
Output:Meter:Cumulative,General:InteriorLights:Electricity:Zone:ZONE OFFICE WHOLEBUILDING - LG OFFICE B END_A - STORY MID3,hourly; !- [J]
Output:Meter,Electricity:Zone:ZONE OFFICE WHOLEBUILDING - LG OFFICE C END_B - STORY MID11,hourly; !- [J]
Output:Meter:Cumulative,Electricity:Zone:ZONE OFFICE WHOLEBUILDING - LG OFFICE C END_B - STORY MID11,hourly; !- [J]
Output:Meter,InteriorLights:Electricity:Zone:ZONE OFFICE WHOLEBUILDING - LG OFFICE C END_B - STORY MID11,hourly; !- [J]
Output:Meter:Cumulative,InteriorLights:Electricity:Zone:ZONE OFFICE WHOLEBUILDING - LG OFFICE C END_B - STORY MID11,hourly; !- [J]
Output:Meter,General:InteriorLights:Electricity:Zone:ZONE OFFICE WHOLEBUILDING - LG OFFICE C END_B - STORY MID11,hourly; !- [J]
Output:Meter:Cumulative,General:InteriorLights:Electricity:Zone:ZONE OFFICE WHOLEBUILDING - LG OFFICE C END_B - STORY MID11,hourly; !- [J]
Output:Meter,Electricity:Zone:ZONE OFFICE WHOLEBUILDING - LG OFFICE C END_B - STORY GROUND,hourly; !- [J]
Output:Meter:Cumulative,Electricity:Zone:ZONE OFFICE WHOLEBUILDING - LG OFFICE C END_B - STORY GROUND,hourly; !- [J]
Output:Meter,InteriorLights:Electricity:Zone:ZONE OFFICE WHOLEBUILDING - LG OFFICE C END_B - STORY GROUND,hourly; !- [J]
Output:Meter:Cumulative,InteriorLights:Electricity:Zone:ZONE OFFICE WHOLEBUILDING - LG OFFICE C END_B - STORY GROUND,hourly; !- [J]
Output:Meter,General:InteriorLights:Electricity:Zone:ZONE OFFICE WHOLEBUILDING - LG OFFICE C END_B - STORY GROUND,hourly; !- [J]
Output:Meter:Cumulative,General:InteriorLights:Electricity:Zone:ZONE OFFICE WHOLEBUILDING - LG OFFICE C END_B - STORY GROUND,hourly; !- [J]
Output:Meter,Electricity:Zone:ZONE OFFICE WHOLEBUILDING - LG OFFICE A END_A - STORY TOP,hourly; !- [J]
Output:Meter:Cumulative,Electricity:Zone:ZONE OFFICE WHOLEBUILDING - LG OFFICE A END_A - STORY TOP,hourly; !- [J]
Output:Meter,InteriorLights:Electricity:Zone:ZONE OFFICE WHOLEBUILDING - LG OFFICE A END_A - STORY TOP,hourly; !- [J]
Output:Meter:Cumulative,InteriorLights:Electricity:Zone:ZONE OFFICE WHOLEBUILDING - LG OFFICE A END_A - STORY TOP,hourly; !- [J]
Output:Meter,General:InteriorLights:Electricity:Zone:ZONE OFFICE WHOLEBUILDING - LG OFFICE A END_A - STORY TOP,hourly; !- [J]
Output:Meter:Cumulative,General:InteriorLights:Electricity:Zone:ZONE OFFICE WHOLEBUILDING - LG OFFICE A END_A - STORY TOP,hourly; !- [J]
Output:Meter,Electricity:Zone:ZONE OFFICE WHOLEBUILDING - LG OFFICE C END_A - STORY MID11,hourly; !- [J]
Output:Meter:Cumulative,Electricity:Zone:ZONE OFFICE WHOLEBUILDING - LG OFFICE C END_A - STORY MID11,hourly; !- [J]
Output:Meter,InteriorLights:Electricity:Zone:ZONE OFFICE WHOLEBUILDING - LG OFFICE C END_A - STORY MID11,hourly; !- [J]
Output:Meter:Cumulative,InteriorLights:Electricity:Zone:ZONE OFFICE WHOLEBUILDING - LG OFFICE C END_A - STORY MID11,hourly; !- [J]
Output:Meter,General:InteriorLights:Electricity:Zone:ZONE OFFICE WHOLEBUILDING - LG OFFICE C END_A - STORY MID11,hourly; !- [J]
Output:Meter:Cumulative,General:InteriorLights:Electricity:Zone:ZONE OFFICE WHOLEBUILDING - LG OFFICE C END_A - STORY MID11,hourly; !- [J]
Output:Meter,Electricity:Zone:ZONE OFFICE WHOLEBUILDING - LG OFFICE A  - STORY MID15,hourly; !- [J]
Output:Meter:Cumulative,Electricity:Zone:ZONE OFFICE WHOLEBUILDING - LG OFFICE A  - STORY MID15,hourly; !- [J]
Output:Meter,InteriorLights:Electricity:Zone:ZONE OFFICE WHOLEBUILDING - LG OFFICE A  - STORY MID15,hourly; !- [J]
Output:Meter:Cumulative,InteriorLights:Electricity:Zone:ZONE OFFICE WHOLEBUILDING - LG OFFICE A  - STORY MID15,hourly; !- [J]
Output:Meter,General:InteriorLights:Electricity:Zone:ZONE OFFICE WHOLEBUILDING - LG OFFICE A  - STORY MID15,hourly; !- [J]
Output:Meter:Cumulative,General:InteriorLights:Electricity:Zone:ZONE OFFICE WHOLEBUILDING - LG OFFICE A  - STORY MID15,hourly; !- [J]
Output:Meter,Electricity:Zone:ZONE OFFICE WHOLEBUILDING - LG OFFICE A END_B - STORY TOP,hourly; !- [J]
Output:Meter:Cumulative,Electricity:Zone:ZONE OFFICE WHOLEBUILDING - LG OFFICE A END_B - STORY TOP,hourly; !- [J]
Output:Meter,InteriorLights:Electricity:Zone:ZONE OFFICE WHOLEBUILDING - LG OFFICE A END_B - STORY TOP,hourly; !- [J]
Output:Meter:Cumulative,InteriorLights:Electricity:Zone:ZONE OFFICE WHOLEBUILDING - LG OFFICE A END_B - STORY TOP,hourly; !- [J]
Output:Meter,General:InteriorLights:Electricity:Zone:ZONE OFFICE WHOLEBUILDING - LG OFFICE A END_B - STORY TOP,hourly; !- [J]
Output:Meter:Cumulative,General:InteriorLights:Electricity:Zone:ZONE OFFICE WHOLEBUILDING - LG OFFICE A END_B - STORY TOP,hourly; !- [J]
Output:Meter,Electricity:Zone:ZONE OFFICE WHOLEBUILDING - LG OFFICE A END_A - STORY MID7,hourly; !- [J]
Output:Meter:Cumulative,Electricity:Zone:ZONE OFFICE WHOLEBUILDING - LG OFFICE A END_A - STORY MID7,hourly; !- [J]
Output:Meter,InteriorLights:Electricity:Zone:ZONE OFFICE WHOLEBUILDING - LG OFFICE A END_A - STORY MID7,hourly; !- [J]
Output:Meter:Cumulative,InteriorLights:Electricity:Zone:ZONE OFFICE WHOLEBUILDING - LG OFFICE A END_A - STORY MID7,hourly; !- [J]
Output:Meter,General:InteriorLights:Electricity:Zone:ZONE OFFICE WHOLEBUILDING - LG OFFICE A END_A - STORY MID7,hourly; !- [J]
Output:Meter:Cumulative,General:InteriorLights:Electricity:Zone:ZONE OFFICE WHOLEBUILDING - LG OFFICE A END_A - STORY MID7,hourly; !- [J]
Output:Meter,Electricity:Zone:ZONE OFFICE WHOLEBUILDING - LG OFFICE B END_A - STORY TOP,hourly; !- [J]
Output:Meter:Cumulative,Electricity:Zone:ZONE OFFICE WHOLEBUILDING - LG OFFICE B END_A - STORY TOP,hourly; !- [J]
Output:Meter,InteriorLights:Electricity:Zone:ZONE OFFICE WHOLEBUILDING - LG OFFICE B END_A - STORY TOP,hourly; !- [J]
Output:Meter:Cumulative,InteriorLights:Electricity:Zone:ZONE OFFICE WHOLEBUILDING - LG OFFICE B END_A - STORY TOP,hourly; !- [J]
Output:Meter,General:InteriorLights:Electricity:Zone:ZONE OFFICE WHOLEBUILDING - LG OFFICE B END_A - STORY TOP,hourly; !- [J]
Output:Meter:Cumulative,General:InteriorLights:Electricity:Zone:ZONE OFFICE WHOLEBUILDING - LG OFFICE B END_A - STORY TOP,hourly; !- [J]
Output:Meter,Electricity:Zone:ZONE OFFICE WHOLEBUILDING - LG OFFICE C  - STORY MID7,hourly; !- [J]
Output:Meter:Cumulative,Electricity:Zone:ZONE OFFICE WHOLEBUILDING - LG OFFICE C  - STORY MID7,hourly; !- [J]
Output:Meter,InteriorLights:Electricity:Zone:ZONE OFFICE WHOLEBUILDING - LG OFFICE C  - STORY MID7,hourly; !- [J]
Output:Meter:Cumulative,InteriorLights:Electricity:Zone:ZONE OFFICE WHOLEBUILDING - LG OFFICE C  - STORY MID7,hourly; !- [J]
Output:Meter,General:InteriorLights:Electricity:Zone:ZONE OFFICE WHOLEBUILDING - LG OFFICE C  - STORY MID7,hourly; !- [J]
Output:Meter:Cumulative,General:InteriorLights:Electricity:Zone:ZONE OFFICE WHOLEBUILDING - LG OFFICE C  - STORY MID7,hourly; !- [J]
Output:Meter,Electricity:Zone:ZONE OFFICE WHOLEBUILDING - LG OFFICE C  - STORY MID12,hourly; !- [J]
Output:Meter:Cumulative,Electricity:Zone:ZONE OFFICE WHOLEBUILDING - LG OFFICE C  - STORY MID12,hourly; !- [J]
Output:Meter,InteriorLights:Electricity:Zone:ZONE OFFICE WHOLEBUILDING - LG OFFICE C  - STORY MID12,hourly; !- [J]
Output:Meter:Cumulative,InteriorLights:Electricity:Zone:ZONE OFFICE WHOLEBUILDING - LG OFFICE C  - STORY MID12,hourly; !- [J]
Output:Meter,General:InteriorLights:Electricity:Zone:ZONE OFFICE WHOLEBUILDING - LG OFFICE C  - STORY MID12,hourly; !- [J]
Output:Meter:Cumulative,General:InteriorLights:Electricity:Zone:ZONE OFFICE WHOLEBUILDING - LG OFFICE C  - STORY MID12,hourly; !- [J]
Output:Meter,Electricity:Zone:ZONE OFFICE WHOLEBUILDING - LG OFFICE C END_B - STORY MID17,hourly; !- [J]
Output:Meter:Cumulative,Electricity:Zone:ZONE OFFICE WHOLEBUILDING - LG OFFICE C END_B - STORY MID17,hourly; !- [J]
Output:Meter,InteriorLights:Electricity:Zone:ZONE OFFICE WHOLEBUILDING - LG OFFICE C END_B - STORY MID17,hourly; !- [J]
Output:Meter:Cumulative,InteriorLights:Electricity:Zone:ZONE OFFICE WHOLEBUILDING - LG OFFICE C END_B - STORY MID17,hourly; !- [J]
Output:Meter,General:InteriorLights:Electricity:Zone:ZONE OFFICE WHOLEBUILDING - LG OFFICE C END_B - STORY MID17,hourly; !- [J]
Output:Meter:Cumulative,General:InteriorLights:Electricity:Zone:ZONE OFFICE WHOLEBUILDING - LG OFFICE C END_B - STORY MID17,hourly; !- [J]
Output:Meter,Electricity:Zone:ZONE OFFICE WHOLEBUILDING - LG OFFICE C END_B - STORY MID12,hourly; !- [J]
Output:Meter:Cumulative,Electricity:Zone:ZONE OFFICE WHOLEBUILDING - LG OFFICE C END_B - STORY MID12,hourly; !- [J]
Output:Meter,InteriorLights:Electricity:Zone:ZONE OFFICE WHOLEBUILDING - LG OFFICE C END_B - STORY MID12,hourly; !- [J]
Output:Meter:Cumulative,InteriorLights:Electricity:Zone:ZONE OFFICE WHOLEBUILDING - LG OFFICE C END_B - STORY MID12,hourly; !- [J]
Output:Meter,General:InteriorLights:Electricity:Zone:ZONE OFFICE WHOLEBUILDING - LG OFFICE C END_B - STORY MID12,hourly; !- [J]
Output:Meter:Cumulative,General:InteriorLights:Electricity:Zone:ZONE OFFICE WHOLEBUILDING - LG OFFICE C END_B - STORY MID12,hourly; !- [J]
Output:Meter,Electricity:Zone:ZONE OFFICE WHOLEBUILDING - LG OFFICE B  - STORY TOP,hourly; !- [J]
Output:Meter:Cumulative,Electricity:Zone:ZONE OFFICE WHOLEBUILDING - LG OFFICE B  - STORY TOP,hourly; !- [J]
Output:Meter,InteriorLights:Electricity:Zone:ZONE OFFICE WHOLEBUILDING - LG OFFICE B  - STORY TOP,hourly; !- [J]
Output:Meter:Cumulative,InteriorLights:Electricity:Zone:ZONE OFFICE WHOLEBUILDING - LG OFFICE B  - STORY TOP,hourly; !- [J]
Output:Meter,General:InteriorLights:Electricity:Zone:ZONE OFFICE WHOLEBUILDING - LG OFFICE B  - STORY TOP,hourly; !- [J]
Output:Meter:Cumulative,General:InteriorLights:Electricity:Zone:ZONE OFFICE WHOLEBUILDING - LG OFFICE B  - STORY TOP,hourly; !- [J]
Output:Meter,Electricity:Zone:ZONE OFFICE WHOLEBUILDING - LG OFFICE C  - STORY TOP,hourly; !- [J]
Output:Meter:Cumulative,Electricity:Zone:ZONE OFFICE WHOLEBUILDING - LG OFFICE C  - STORY TOP,hourly; !- [J]
Output:Meter,InteriorLights:Electricity:Zone:ZONE OFFICE WHOLEBUILDING - LG OFFICE C  - STORY TOP,hourly; !- [J]
Output:Meter:Cumulative,InteriorLights:Electricity:Zone:ZONE OFFICE WHOLEBUILDING - LG OFFICE C  - STORY TOP,hourly; !- [J]
Output:Meter,General:InteriorLights:Electricity:Zone:ZONE OFFICE WHOLEBUILDING - LG OFFICE C  - STORY TOP,hourly; !- [J]
Output:Meter:Cumulative,General:InteriorLights:Electricity:Zone:ZONE OFFICE WHOLEBUILDING - LG OFFICE C  - STORY TOP,hourly; !- [J]
Output:Meter,Electricity:Zone:ZONE OFFICE WHOLEBUILDING - LG OFFICE C  - STORY MID10,hourly; !- [J]
Output:Meter:Cumulative,Electricity:Zone:ZONE OFFICE WHOLEBUILDING - LG OFFICE C  - STORY MID10,hourly; !- [J]
Output:Meter,InteriorLights:Electricity:Zone:ZONE OFFICE WHOLEBUILDING - LG OFFICE C  - STORY MID10,hourly; !- [J]
Output:Meter:Cumulative,InteriorLights:Electricity:Zone:ZONE OFFICE WHOLEBUILDING - LG OFFICE C  - STORY MID10,hourly; !- [J]
Output:Meter,General:InteriorLights:Electricity:Zone:ZONE OFFICE WHOLEBUILDING - LG OFFICE C  - STORY MID10,hourly; !- [J]
Output:Meter:Cumulative,General:InteriorLights:Electricity:Zone:ZONE OFFICE WHOLEBUILDING - LG OFFICE C  - STORY MID10,hourly; !- [J]
Output:Meter,Electricity:Zone:ZONE OFFICE WHOLEBUILDING - LG OFFICE A END_A - STORY MID4,hourly; !- [J]
Output:Meter:Cumulative,Electricity:Zone:ZONE OFFICE WHOLEBUILDING - LG OFFICE A END_A - STORY MID4,hourly; !- [J]
Output:Meter,InteriorLights:Electricity:Zone:ZONE OFFICE WHOLEBUILDING - LG OFFICE A END_A - STORY MID4,hourly; !- [J]
Output:Meter:Cumulative,InteriorLights:Electricity:Zone:ZONE OFFICE WHOLEBUILDING - LG OFFICE A END_A - STORY MID4,hourly; !- [J]
Output:Meter,General:InteriorLights:Electricity:Zone:ZONE OFFICE WHOLEBUILDING - LG OFFICE A END_A - STORY MID4,hourly; !- [J]
Output:Meter:Cumulative,General:InteriorLights:Electricity:Zone:ZONE OFFICE WHOLEBUILDING - LG OFFICE A END_A - STORY MID4,hourly; !- [J]
Output:Meter,Electricity:Zone:ZONE OFFICE WHOLEBUILDING - LG OFFICE B END_A - STORY MID18,hourly; !- [J]
Output:Meter:Cumulative,Electricity:Zone:ZONE OFFICE WHOLEBUILDING - LG OFFICE B END_A - STORY MID18,hourly; !- [J]
Output:Meter,InteriorLights:Electricity:Zone:ZONE OFFICE WHOLEBUILDING - LG OFFICE B END_A - STORY MID18,hourly; !- [J]
Output:Meter:Cumulative,InteriorLights:Electricity:Zone:ZONE OFFICE WHOLEBUILDING - LG OFFICE B END_A - STORY MID18,hourly; !- [J]
Output:Meter,General:InteriorLights:Electricity:Zone:ZONE OFFICE WHOLEBUILDING - LG OFFICE B END_A - STORY MID18,hourly; !- [J]
Output:Meter:Cumulative,General:InteriorLights:Electricity:Zone:ZONE OFFICE WHOLEBUILDING - LG OFFICE B END_A - STORY MID18,hourly; !- [J]
Output:Meter,Electricity:Zone:ZONE OFFICE WHOLEBUILDING - LG OFFICE A END_B - STORY MID4,hourly; !- [J]
Output:Meter:Cumulative,Electricity:Zone:ZONE OFFICE WHOLEBUILDING - LG OFFICE A END_B - STORY MID4,hourly; !- [J]
Output:Meter,InteriorLights:Electricity:Zone:ZONE OFFICE WHOLEBUILDING - LG OFFICE A END_B - STORY MID4,hourly; !- [J]
Output:Meter:Cumulative,InteriorLights:Electricity:Zone:ZONE OFFICE WHOLEBUILDING - LG OFFICE A END_B - STORY MID4,hourly; !- [J]
Output:Meter,General:InteriorLights:Electricity:Zone:ZONE OFFICE WHOLEBUILDING - LG OFFICE A END_B - STORY MID4,hourly; !- [J]
Output:Meter:Cumulative,General:InteriorLights:Electricity:Zone:ZONE OFFICE WHOLEBUILDING - LG OFFICE A END_B - STORY MID4,hourly; !- [J]
Output:Meter,Electricity:Zone:ZONE OFFICE WHOLEBUILDING - LG OFFICE A END_B - STORY MID14,hourly; !- [J]
Output:Meter:Cumulative,Electricity:Zone:ZONE OFFICE WHOLEBUILDING - LG OFFICE A END_B - STORY MID14,hourly; !- [J]
Output:Meter,InteriorLights:Electricity:Zone:ZONE OFFICE WHOLEBUILDING - LG OFFICE A END_B - STORY MID14,hourly; !- [J]
Output:Meter:Cumulative,InteriorLights:Electricity:Zone:ZONE OFFICE WHOLEBUILDING - LG OFFICE A END_B - STORY MID14,hourly; !- [J]
Output:Meter,General:InteriorLights:Electricity:Zone:ZONE OFFICE WHOLEBUILDING - LG OFFICE A END_B - STORY MID14,hourly; !- [J]
Output:Meter:Cumulative,General:InteriorLights:Electricity:Zone:ZONE OFFICE WHOLEBUILDING - LG OFFICE A END_B - STORY MID14,hourly; !- [J]
Output:Meter,Electricity:Zone:ZONE OFFICE WHOLEBUILDING - LG OFFICE B END_B - STORY MID8,hourly; !- [J]
Output:Meter:Cumulative,Electricity:Zone:ZONE OFFICE WHOLEBUILDING - LG OFFICE B END_B - STORY MID8,hourly; !- [J]
Output:Meter,InteriorLights:Electricity:Zone:ZONE OFFICE WHOLEBUILDING - LG OFFICE B END_B - STORY MID8,hourly; !- [J]
Output:Meter:Cumulative,InteriorLights:Electricity:Zone:ZONE OFFICE WHOLEBUILDING - LG OFFICE B END_B - STORY MID8,hourly; !- [J]
Output:Meter,General:InteriorLights:Electricity:Zone:ZONE OFFICE WHOLEBUILDING - LG OFFICE B END_B - STORY MID8,hourly; !- [J]
Output:Meter:Cumulative,General:InteriorLights:Electricity:Zone:ZONE OFFICE WHOLEBUILDING - LG OFFICE B END_B - STORY MID8,hourly; !- [J]
Output:Meter,Electricity:Zone:ZONE OFFICE WHOLEBUILDING - LG OFFICE A END_A - STORY MID8,hourly; !- [J]
Output:Meter:Cumulative,Electricity:Zone:ZONE OFFICE WHOLEBUILDING - LG OFFICE A END_A - STORY MID8,hourly; !- [J]
Output:Meter,InteriorLights:Electricity:Zone:ZONE OFFICE WHOLEBUILDING - LG OFFICE A END_A - STORY MID8,hourly; !- [J]
Output:Meter:Cumulative,InteriorLights:Electricity:Zone:ZONE OFFICE WHOLEBUILDING - LG OFFICE A END_A - STORY MID8,hourly; !- [J]
Output:Meter,General:InteriorLights:Electricity:Zone:ZONE OFFICE WHOLEBUILDING - LG OFFICE A END_A - STORY MID8,hourly; !- [J]
Output:Meter:Cumulative,General:InteriorLights:Electricity:Zone:ZONE OFFICE WHOLEBUILDING - LG OFFICE A END_A - STORY MID8,hourly; !- [J]
Output:Meter,Electricity:Zone:ZONE OFFICE WHOLEBUILDING - LG OFFICE C  - STORY MID17,hourly; !- [J]
Output:Meter:Cumulative,Electricity:Zone:ZONE OFFICE WHOLEBUILDING - LG OFFICE C  - STORY MID17,hourly; !- [J]
Output:Meter,InteriorLights:Electricity:Zone:ZONE OFFICE WHOLEBUILDING - LG OFFICE C  - STORY MID17,hourly; !- [J]
Output:Meter:Cumulative,InteriorLights:Electricity:Zone:ZONE OFFICE WHOLEBUILDING - LG OFFICE C  - STORY MID17,hourly; !- [J]
Output:Meter,General:InteriorLights:Electricity:Zone:ZONE OFFICE WHOLEBUILDING - LG OFFICE C  - STORY MID17,hourly; !- [J]
Output:Meter:Cumulative,General:InteriorLights:Electricity:Zone:ZONE OFFICE WHOLEBUILDING - LG OFFICE C  - STORY MID17,hourly; !- [J]
Output:Meter,Electricity:Zone:ZONE OFFICE WHOLEBUILDING - LG OFFICE A  - STORY TOP,hourly; !- [J]
Output:Meter:Cumulative,Electricity:Zone:ZONE OFFICE WHOLEBUILDING - LG OFFICE A  - STORY TOP,hourly; !- [J]
Output:Meter,InteriorLights:Electricity:Zone:ZONE OFFICE WHOLEBUILDING - LG OFFICE A  - STORY TOP,hourly; !- [J]
Output:Meter:Cumulative,InteriorLights:Electricity:Zone:ZONE OFFICE WHOLEBUILDING - LG OFFICE A  - STORY TOP,hourly; !- [J]
Output:Meter,General:InteriorLights:Electricity:Zone:ZONE OFFICE WHOLEBUILDING - LG OFFICE A  - STORY TOP,hourly; !- [J]
Output:Meter:Cumulative,General:InteriorLights:Electricity:Zone:ZONE OFFICE WHOLEBUILDING - LG OFFICE A  - STORY TOP,hourly; !- [J]
Output:Meter,Electricity:Zone:ZONE OFFICE WHOLEBUILDING - LG OFFICE A END_A - STORY MID17,hourly; !- [J]
Output:Meter:Cumulative,Electricity:Zone:ZONE OFFICE WHOLEBUILDING - LG OFFICE A END_A - STORY MID17,hourly; !- [J]
Output:Meter,InteriorLights:Electricity:Zone:ZONE OFFICE WHOLEBUILDING - LG OFFICE A END_A - STORY MID17,hourly; !- [J]
Output:Meter:Cumulative,InteriorLights:Electricity:Zone:ZONE OFFICE WHOLEBUILDING - LG OFFICE A END_A - STORY MID17,hourly; !- [J]
Output:Meter,General:InteriorLights:Electricity:Zone:ZONE OFFICE WHOLEBUILDING - LG OFFICE A END_A - STORY MID17,hourly; !- [J]
Output:Meter:Cumulative,General:InteriorLights:Electricity:Zone:ZONE OFFICE WHOLEBUILDING - LG OFFICE A END_A - STORY MID17,hourly; !- [J]
Output:Meter,Electricity:Zone:ZONE OFFICE WHOLEBUILDING - LG OFFICE C END_B - STORY TOP,hourly; !- [J]
Output:Meter:Cumulative,Electricity:Zone:ZONE OFFICE WHOLEBUILDING - LG OFFICE C END_B - STORY TOP,hourly; !- [J]
Output:Meter,InteriorLights:Electricity:Zone:ZONE OFFICE WHOLEBUILDING - LG OFFICE C END_B - STORY TOP,hourly; !- [J]
Output:Meter:Cumulative,InteriorLights:Electricity:Zone:ZONE OFFICE WHOLEBUILDING - LG OFFICE C END_B - STORY TOP,hourly; !- [J]
Output:Meter,General:InteriorLights:Electricity:Zone:ZONE OFFICE WHOLEBUILDING - LG OFFICE C END_B - STORY TOP,hourly; !- [J]
Output:Meter:Cumulative,General:InteriorLights:Electricity:Zone:ZONE OFFICE WHOLEBUILDING - LG OFFICE C END_B - STORY TOP,hourly; !- [J]
Output:Meter,Electricity:Zone:ZONE OFFICE WHOLEBUILDING - LG OFFICE B END_A - STORY MID,hourly; !- [J]
Output:Meter:Cumulative,Electricity:Zone:ZONE OFFICE WHOLEBUILDING - LG OFFICE B END_A - STORY MID,hourly; !- [J]
Output:Meter,InteriorLights:Electricity:Zone:ZONE OFFICE WHOLEBUILDING - LG OFFICE B END_A - STORY MID,hourly; !- [J]
Output:Meter:Cumulative,InteriorLights:Electricity:Zone:ZONE OFFICE WHOLEBUILDING - LG OFFICE B END_A - STORY MID,hourly; !- [J]
Output:Meter,General:InteriorLights:Electricity:Zone:ZONE OFFICE WHOLEBUILDING - LG OFFICE B END_A - STORY MID,hourly; !- [J]
Output:Meter:Cumulative,General:InteriorLights:Electricity:Zone:ZONE OFFICE WHOLEBUILDING - LG OFFICE B END_A - STORY MID,hourly; !- [J]
Output:Meter,Electricity:Zone:ZONE OFFICE WHOLEBUILDING - LG OFFICE B  - STORY MID2,hourly; !- [J]
Output:Meter:Cumulative,Electricity:Zone:ZONE OFFICE WHOLEBUILDING - LG OFFICE B  - STORY MID2,hourly; !- [J]
Output:Meter,InteriorLights:Electricity:Zone:ZONE OFFICE WHOLEBUILDING - LG OFFICE B  - STORY MID2,hourly; !- [J]
Output:Meter:Cumulative,InteriorLights:Electricity:Zone:ZONE OFFICE WHOLEBUILDING - LG OFFICE B  - STORY MID2,hourly; !- [J]
Output:Meter,General:InteriorLights:Electricity:Zone:ZONE OFFICE WHOLEBUILDING - LG OFFICE B  - STORY MID2,hourly; !- [J]
Output:Meter:Cumulative,General:InteriorLights:Electricity:Zone:ZONE OFFICE WHOLEBUILDING - LG OFFICE B  - STORY MID2,hourly; !- [J]
Output:Meter,Electricity:Zone:ZONE OFFICE WHOLEBUILDING - LG OFFICE B END_B - STORY MID17,hourly; !- [J]
Output:Meter:Cumulative,Electricity:Zone:ZONE OFFICE WHOLEBUILDING - LG OFFICE B END_B - STORY MID17,hourly; !- [J]
Output:Meter,InteriorLights:Electricity:Zone:ZONE OFFICE WHOLEBUILDING - LG OFFICE B END_B - STORY MID17,hourly; !- [J]
Output:Meter:Cumulative,InteriorLights:Electricity:Zone:ZONE OFFICE WHOLEBUILDING - LG OFFICE B END_B - STORY MID17,hourly; !- [J]
Output:Meter,General:InteriorLights:Electricity:Zone:ZONE OFFICE WHOLEBUILDING - LG OFFICE B END_B - STORY MID17,hourly; !- [J]
Output:Meter:Cumulative,General:InteriorLights:Electricity:Zone:ZONE OFFICE WHOLEBUILDING - LG OFFICE B END_B - STORY MID17,hourly; !- [J]
Output:Meter,Electricity:Zone:ZONE OFFICE WHOLEBUILDING - LG OFFICE A  - STORY MID18,hourly; !- [J]
Output:Meter:Cumulative,Electricity:Zone:ZONE OFFICE WHOLEBUILDING - LG OFFICE A  - STORY MID18,hourly; !- [J]
Output:Meter,InteriorLights:Electricity:Zone:ZONE OFFICE WHOLEBUILDING - LG OFFICE A  - STORY MID18,hourly; !- [J]
Output:Meter:Cumulative,InteriorLights:Electricity:Zone:ZONE OFFICE WHOLEBUILDING - LG OFFICE A  - STORY MID18,hourly; !- [J]
Output:Meter,General:InteriorLights:Electricity:Zone:ZONE OFFICE WHOLEBUILDING - LG OFFICE A  - STORY MID18,hourly; !- [J]
Output:Meter:Cumulative,General:InteriorLights:Electricity:Zone:ZONE OFFICE WHOLEBUILDING - LG OFFICE A  - STORY MID18,hourly; !- [J]
Output:Meter,Electricity:Zone:ZONE OFFICE WHOLEBUILDING - LG OFFICE A END_B - STORY MID16,hourly; !- [J]
Output:Meter:Cumulative,Electricity:Zone:ZONE OFFICE WHOLEBUILDING - LG OFFICE A END_B - STORY MID16,hourly; !- [J]
Output:Meter,InteriorLights:Electricity:Zone:ZONE OFFICE WHOLEBUILDING - LG OFFICE A END_B - STORY MID16,hourly; !- [J]
Output:Meter:Cumulative,InteriorLights:Electricity:Zone:ZONE OFFICE WHOLEBUILDING - LG OFFICE A END_B - STORY MID16,hourly; !- [J]
Output:Meter,General:InteriorLights:Electricity:Zone:ZONE OFFICE WHOLEBUILDING - LG OFFICE A END_B - STORY MID16,hourly; !- [J]
Output:Meter:Cumulative,General:InteriorLights:Electricity:Zone:ZONE OFFICE WHOLEBUILDING - LG OFFICE A END_B - STORY MID16,hourly; !- [J]
Output:Meter,Electricity:Zone:ZONE OFFICE WHOLEBUILDING - LG OFFICE C END_A - STORY MID15,hourly; !- [J]
Output:Meter:Cumulative,Electricity:Zone:ZONE OFFICE WHOLEBUILDING - LG OFFICE C END_A - STORY MID15,hourly; !- [J]
Output:Meter,InteriorLights:Electricity:Zone:ZONE OFFICE WHOLEBUILDING - LG OFFICE C END_A - STORY MID15,hourly; !- [J]
Output:Meter:Cumulative,InteriorLights:Electricity:Zone:ZONE OFFICE WHOLEBUILDING - LG OFFICE C END_A - STORY MID15,hourly; !- [J]
Output:Meter,General:InteriorLights:Electricity:Zone:ZONE OFFICE WHOLEBUILDING - LG OFFICE C END_A - STORY MID15,hourly; !- [J]
Output:Meter:Cumulative,General:InteriorLights:Electricity:Zone:ZONE OFFICE WHOLEBUILDING - LG OFFICE C END_A - STORY MID15,hourly; !- [J]
Output:Meter,Electricity:Zone:ZONE OFFICE WHOLEBUILDING - LG OFFICE A  - STORY MID16,hourly; !- [J]
Output:Meter:Cumulative,Electricity:Zone:ZONE OFFICE WHOLEBUILDING - LG OFFICE A  - STORY MID16,hourly; !- [J]
Output:Meter,InteriorLights:Electricity:Zone:ZONE OFFICE WHOLEBUILDING - LG OFFICE A  - STORY MID16,hourly; !- [J]
Output:Meter:Cumulative,InteriorLights:Electricity:Zone:ZONE OFFICE WHOLEBUILDING - LG OFFICE A  - STORY MID16,hourly; !- [J]
Output:Meter,General:InteriorLights:Electricity:Zone:ZONE OFFICE WHOLEBUILDING - LG OFFICE A  - STORY MID16,hourly; !- [J]
Output:Meter:Cumulative,General:InteriorLights:Electricity:Zone:ZONE OFFICE WHOLEBUILDING - LG OFFICE A  - STORY MID16,hourly; !- [J]
Output:Meter,Electricity:Zone:ZONE OFFICE WHOLEBUILDING - LG OFFICE A END_A - STORY MID18,hourly; !- [J]
Output:Meter:Cumulative,Electricity:Zone:ZONE OFFICE WHOLEBUILDING - LG OFFICE A END_A - STORY MID18,hourly; !- [J]
Output:Meter,InteriorLights:Electricity:Zone:ZONE OFFICE WHOLEBUILDING - LG OFFICE A END_A - STORY MID18,hourly; !- [J]
Output:Meter:Cumulative,InteriorLights:Electricity:Zone:ZONE OFFICE WHOLEBUILDING - LG OFFICE A END_A - STORY MID18,hourly; !- [J]
Output:Meter,General:InteriorLights:Electricity:Zone:ZONE OFFICE WHOLEBUILDING - LG OFFICE A END_A - STORY MID18,hourly; !- [J]
Output:Meter:Cumulative,General:InteriorLights:Electricity:Zone:ZONE OFFICE WHOLEBUILDING - LG OFFICE A END_A - STORY MID18,hourly; !- [J]
Output:Meter,Electricity:Zone:ZONE OFFICE WHOLEBUILDING - LG OFFICE B END_B - STORY MID10,hourly; !- [J]
Output:Meter:Cumulative,Electricity:Zone:ZONE OFFICE WHOLEBUILDING - LG OFFICE B END_B - STORY MID10,hourly; !- [J]
Output:Meter,InteriorLights:Electricity:Zone:ZONE OFFICE WHOLEBUILDING - LG OFFICE B END_B - STORY MID10,hourly; !- [J]
Output:Meter:Cumulative,InteriorLights:Electricity:Zone:ZONE OFFICE WHOLEBUILDING - LG OFFICE B END_B - STORY MID10,hourly; !- [J]
Output:Meter,General:InteriorLights:Electricity:Zone:ZONE OFFICE WHOLEBUILDING - LG OFFICE B END_B - STORY MID10,hourly; !- [J]
Output:Meter:Cumulative,General:InteriorLights:Electricity:Zone:ZONE OFFICE WHOLEBUILDING - LG OFFICE B END_B - STORY MID10,hourly; !- [J]
Output:Meter,Electricity:Zone:ZONE OFFICE WHOLEBUILDING - LG OFFICE B END_A - STORY MID2,hourly; !- [J]
Output:Meter:Cumulative,Electricity:Zone:ZONE OFFICE WHOLEBUILDING - LG OFFICE B END_A - STORY MID2,hourly; !- [J]
Output:Meter,InteriorLights:Electricity:Zone:ZONE OFFICE WHOLEBUILDING - LG OFFICE B END_A - STORY MID2,hourly; !- [J]
Output:Meter:Cumulative,InteriorLights:Electricity:Zone:ZONE OFFICE WHOLEBUILDING - LG OFFICE B END_A - STORY MID2,hourly; !- [J]
Output:Meter,General:InteriorLights:Electricity:Zone:ZONE OFFICE WHOLEBUILDING - LG OFFICE B END_A - STORY MID2,hourly; !- [J]
Output:Meter:Cumulative,General:InteriorLights:Electricity:Zone:ZONE OFFICE WHOLEBUILDING - LG OFFICE B END_A - STORY MID2,hourly; !- [J]
Output:Meter,Electricity:Zone:ZONE OFFICE WHOLEBUILDING - LG OFFICE A END_B - STORY MID17,hourly; !- [J]
Output:Meter:Cumulative,Electricity:Zone:ZONE OFFICE WHOLEBUILDING - LG OFFICE A END_B - STORY MID17,hourly; !- [J]
Output:Meter,InteriorLights:Electricity:Zone:ZONE OFFICE WHOLEBUILDING - LG OFFICE A END_B - STORY MID17,hourly; !- [J]
Output:Meter:Cumulative,InteriorLights:Electricity:Zone:ZONE OFFICE WHOLEBUILDING - LG OFFICE A END_B - STORY MID17,hourly; !- [J]
Output:Meter,General:InteriorLights:Electricity:Zone:ZONE OFFICE WHOLEBUILDING - LG OFFICE A END_B - STORY MID17,hourly; !- [J]
Output:Meter:Cumulative,General:InteriorLights:Electricity:Zone:ZONE OFFICE WHOLEBUILDING - LG OFFICE A END_B - STORY MID17,hourly; !- [J]
Output:Meter,Electricity:Zone:ZONE OFFICE WHOLEBUILDING - LG OFFICE B END_B - STORY MID3,hourly; !- [J]
Output:Meter:Cumulative,Electricity:Zone:ZONE OFFICE WHOLEBUILDING - LG OFFICE B END_B - STORY MID3,hourly; !- [J]
Output:Meter,InteriorLights:Electricity:Zone:ZONE OFFICE WHOLEBUILDING - LG OFFICE B END_B - STORY MID3,hourly; !- [J]
Output:Meter:Cumulative,InteriorLights:Electricity:Zone:ZONE OFFICE WHOLEBUILDING - LG OFFICE B END_B - STORY MID3,hourly; !- [J]
Output:Meter,General:InteriorLights:Electricity:Zone:ZONE OFFICE WHOLEBUILDING - LG OFFICE B END_B - STORY MID3,hourly; !- [J]
Output:Meter:Cumulative,General:InteriorLights:Electricity:Zone:ZONE OFFICE WHOLEBUILDING - LG OFFICE B END_B - STORY MID3,hourly; !- [J]
Output:Meter,Electricity:Zone:ZONE OFFICE WHOLEBUILDING - LG OFFICE C  - STORY MID13,hourly; !- [J]
Output:Meter:Cumulative,Electricity:Zone:ZONE OFFICE WHOLEBUILDING - LG OFFICE C  - STORY MID13,hourly; !- [J]
Output:Meter,InteriorLights:Electricity:Zone:ZONE OFFICE WHOLEBUILDING - LG OFFICE C  - STORY MID13,hourly; !- [J]
Output:Meter:Cumulative,InteriorLights:Electricity:Zone:ZONE OFFICE WHOLEBUILDING - LG OFFICE C  - STORY MID13,hourly; !- [J]
Output:Meter,General:InteriorLights:Electricity:Zone:ZONE OFFICE WHOLEBUILDING - LG OFFICE C  - STORY MID13,hourly; !- [J]
Output:Meter:Cumulative,General:InteriorLights:Electricity:Zone:ZONE OFFICE WHOLEBUILDING - LG OFFICE C  - STORY MID13,hourly; !- [J]
Output:Meter,Electricity:Zone:ZONE OFFICE WHOLEBUILDING - LG OFFICE B  - STORY GROUND,hourly; !- [J]
Output:Meter:Cumulative,Electricity:Zone:ZONE OFFICE WHOLEBUILDING - LG OFFICE B  - STORY GROUND,hourly; !- [J]
Output:Meter,InteriorLights:Electricity:Zone:ZONE OFFICE WHOLEBUILDING - LG OFFICE B  - STORY GROUND,hourly; !- [J]
Output:Meter:Cumulative,InteriorLights:Electricity:Zone:ZONE OFFICE WHOLEBUILDING - LG OFFICE B  - STORY GROUND,hourly; !- [J]
Output:Meter,General:InteriorLights:Electricity:Zone:ZONE OFFICE WHOLEBUILDING - LG OFFICE B  - STORY GROUND,hourly; !- [J]
Output:Meter:Cumulative,General:InteriorLights:Electricity:Zone:ZONE OFFICE WHOLEBUILDING - LG OFFICE B  - STORY GROUND,hourly; !- [J]
Output:Meter,Electricity:Zone:ZONE OFFICE WHOLEBUILDING - LG OFFICE B END_B - STORY TOP,hourly; !- [J]
Output:Meter:Cumulative,Electricity:Zone:ZONE OFFICE WHOLEBUILDING - LG OFFICE B END_B - STORY TOP,hourly; !- [J]
[...]
Output:Meter,General:Cooling:EnergyTransfer:Zone:ZONE OFFICE WHOLEBUILDING - LG OFFICE C END_B - STORY MID16,hourly; !- [J]
Output:Meter:Cumulative,General:Cooling:EnergyTransfer:Zone:ZONE OFFICE WHOLEBUILDING - LG OFFICE C END_B - STORY MID16,hourly; !- [J]
Output:Meter,EnergyTransfer:Zone:ZONE OFFICE WHOLEBUILDING - LG OFFICE C END_B - STORY MID17,hourly; !- [J]
Output:Meter:Cumulative,EnergyTransfer:Zone:ZONE OFFICE WHOLEBUILDING - LG OFFICE C END_B - STORY MID17,hourly; !- [J]
Output:Meter,Heating:EnergyTransfer:Zone:ZONE OFFICE WHOLEBUILDING - LG OFFICE C END_B - STORY MID17,hourly; !- [J]
Output:Meter:Cumulative,Heating:EnergyTransfer:Zone:ZONE OFFICE WHOLEBUILDING - LG OFFICE C END_B - STORY MID17,hourly; !- [J]
Output:Meter,General:Heating:EnergyTransfer:Zone:ZONE OFFICE WHOLEBUILDING - LG OFFICE C END_B - STORY MID17,hourly; !- [J]
Output:Meter:Cumulative,General:Heating:EnergyTransfer:Zone:ZONE OFFICE WHOLEBUILDING - LG OFFICE C END_B - STORY MID17,hourly; !- [J]
Output:Meter,Cooling:EnergyTransfer:Zone:ZONE OFFICE WHOLEBUILDING - LG OFFICE C END_B - STORY MID17,hourly; !- [J]
Output:Meter:Cumulative,Cooling:EnergyTransfer:Zone:ZONE OFFICE WHOLEBUILDING - LG OFFICE C END_B - STORY MID17,hourly; !- [J]
Output:Meter,General:Cooling:EnergyTransfer:Zone:ZONE OFFICE WHOLEBUILDING - LG OFFICE C END_B - STORY MID17,hourly; !- [J]
Output:Meter:Cumulative,General:Cooling:EnergyTransfer:Zone:ZONE OFFICE WHOLEBUILDING - LG OFFICE C END_B - STORY MID17,hourly; !- [J]
Output:Meter,EnergyTransfer:Zone:ZONE OFFICE WHOLEBUILDING - LG OFFICE C END_B - STORY MID18,hourly; !- [J]
Output:Meter:Cumulative,EnergyTransfer:Zone:ZONE OFFICE WHOLEBUILDING - LG OFFICE C END_B - STORY MID18,hourly; !- [J]
Output:Meter,Heating:EnergyTransfer:Zone:ZONE OFFICE WHOLEBUILDING - LG OFFICE C END_B - STORY MID18,hourly; !- [J]
Output:Meter:Cumulative,Heating:EnergyTransfer:Zone:ZONE OFFICE WHOLEBUILDING - LG OFFICE C END_B - STORY MID18,hourly; !- [J]
Output:Meter,General:Heating:EnergyTransfer:Zone:ZONE OFFICE WHOLEBUILDING - LG OFFICE C END_B - STORY MID18,hourly; !- [J]
Output:Meter:Cumulative,General:Heating:EnergyTransfer:Zone:ZONE OFFICE WHOLEBUILDING - LG OFFICE C END_B - STORY MID18,hourly; !- [J]
Output:Meter,Cooling:EnergyTransfer:Zone:ZONE OFFICE WHOLEBUILDING - LG OFFICE C END_B - STORY MID18,hourly; !- [J]
Output:Meter:Cumulative,Cooling:EnergyTransfer:Zone:ZONE OFFICE WHOLEBUILDING - LG OFFICE C END_B - STORY MID18,hourly; !- [J]
Output:Meter,General:Cooling:EnergyTransfer:Zone:ZONE OFFICE WHOLEBUILDING - LG OFFICE C END_B - STORY MID18,hourly; !- [J]
Output:Meter:Cumulative,General:Cooling:EnergyTransfer:Zone:ZONE OFFICE WHOLEBUILDING - LG OFFICE C END_B - STORY MID18,hourly; !- [J]
Output:Meter,EnergyTransfer:Zone:ZONE OFFICE WHOLEBUILDING - LG OFFICE C END_B - STORY MID2,hourly; !- [J]
Output:Meter:Cumulative,EnergyTransfer:Zone:ZONE OFFICE WHOLEBUILDING - LG OFFICE C END_B - STORY MID2,hourly; !- [J]
Output:Meter,Heating:EnergyTransfer:Zone:ZONE OFFICE WHOLEBUILDING - LG OFFICE C END_B - STORY MID2,hourly; !- [J]
Output:Meter:Cumulative,Heating:EnergyTransfer:Zone:ZONE OFFICE WHOLEBUILDING - LG OFFICE C END_B - STORY MID2,hourly; !- [J]
Output:Meter,General:Heating:EnergyTransfer:Zone:ZONE OFFICE WHOLEBUILDING - LG OFFICE C END_B - STORY MID2,hourly; !- [J]
Output:Meter:Cumulative,General:Heating:EnergyTransfer:Zone:ZONE OFFICE WHOLEBUILDING - LG OFFICE C END_B - STORY MID2,hourly; !- [J]
Output:Meter,Cooling:EnergyTransfer:Zone:ZONE OFFICE WHOLEBUILDING - LG OFFICE C END_B - STORY MID2,hourly; !- [J]
Output:Meter:Cumulative,Cooling:EnergyTransfer:Zone:ZONE OFFICE WHOLEBUILDING - LG OFFICE C END_B - STORY MID2,hourly; !- [J]
Output:Meter,General:Cooling:EnergyTransfer:Zone:ZONE OFFICE WHOLEBUILDING - LG OFFICE C END_B - STORY MID2,hourly; !- [J]
Output:Meter:Cumulative,General:Cooling:EnergyTransfer:Zone:ZONE OFFICE WHOLEBUILDING - LG OFFICE C END_B - STORY MID2,hourly; !- [J]
Output:Meter,EnergyTransfer:Zone:ZONE OFFICE WHOLEBUILDING - LG OFFICE C END_B - STORY MID3,hourly; !- [J]
Output:Meter:Cumulative,EnergyTransfer:Zone:ZONE OFFICE WHOLEBUILDING - LG OFFICE C END_B - STORY MID3,hourly; !- [J]
Output:Meter,Heating:EnergyTransfer:Zone:ZONE OFFICE WHOLEBUILDING - LG OFFICE C END_B - STORY MID3,hourly; !- [J]
Output:Meter:Cumulative,Heating:EnergyTransfer:Zone:ZONE OFFICE WHOLEBUILDING - LG OFFICE C END_B - STORY MID3,hourly; !- [J]
Output:Meter,General:Heating:EnergyTransfer:Zone:ZONE OFFICE WHOLEBUILDING - LG OFFICE C END_B - STORY MID3,hourly; !- [J]
Output:Meter:Cumulative,General:Heating:EnergyTransfer:Zone:ZONE OFFICE WHOLEBUILDING - LG OFFICE C END_B - STORY MID3,hourly; !- [J]
Output:Meter,Cooling:EnergyTransfer:Zone:ZONE OFFICE WHOLEBUILDING - LG OFFICE C END_B - STORY MID3,hourly; !- [J]
Output:Meter:Cumulative,Cooling:EnergyTransfer:Zone:ZONE OFFICE WHOLEBUILDING - LG OFFICE C END_B - STORY MID3,hourly; !- [J]
Output:Meter,General:Cooling:EnergyTransfer:Zone:ZONE OFFICE WHOLEBUILDING - LG OFFICE C END_B - STORY MID3,hourly; !- [J]
Output:Meter:Cumulative,General:Cooling:EnergyTransfer:Zone:ZONE OFFICE WHOLEBUILDING - LG OFFICE C END_B - STORY MID3,hourly; !- [J]
Output:Meter,EnergyTransfer:Zone:ZONE OFFICE WHOLEBUILDING - LG OFFICE C END_B - STORY MID4,hourly; !- [J]
Output:Meter:Cumulative,EnergyTransfer:Zone:ZONE OFFICE WHOLEBUILDING - LG OFFICE C END_B - STORY MID4,hourly; !- [J]
Output:Meter,Heating:EnergyTransfer:Zone:ZONE OFFICE WHOLEBUILDING - LG OFFICE C END_B - STORY MID4,hourly; !- [J]
Output:Meter:Cumulative,Heating:EnergyTransfer:Zone:ZONE OFFICE WHOLEBUILDING - LG OFFICE C END_B - STORY MID4,hourly; !- [J]
Output:Meter,General:Heating:EnergyTransfer:Zone:ZONE OFFICE WHOLEBUILDING - LG OFFICE C END_B - STORY MID4,hourly; !- [J]
Output:Meter:Cumulative,General:Heating:EnergyTransfer:Zone:ZONE OFFICE WHOLEBUILDING - LG OFFICE C END_B - STORY MID4,hourly; !- [J]
Output:Meter,Cooling:EnergyTransfer:Zone:ZONE OFFICE WHOLEBUILDING - LG OFFICE C END_B - STORY MID4,hourly; !- [J]
Output:Meter:Cumulative,Cooling:EnergyTransfer:Zone:ZONE OFFICE WHOLEBUILDING - LG OFFICE C END_B - STORY MID4,hourly; !- [J]
Output:Meter,General:Cooling:EnergyTransfer:Zone:ZONE OFFICE WHOLEBUILDING - LG OFFICE C END_B - STORY MID4,hourly; !- [J]
Output:Meter:Cumulative,General:Cooling:EnergyTransfer:Zone:ZONE OFFICE WHOLEBUILDING - LG OFFICE C END_B - STORY MID4,hourly; !- [J]
Output:Meter,EnergyTransfer:Zone:ZONE OFFICE WHOLEBUILDING - LG OFFICE C END_B - STORY MID5,hourly; !- [J]
Output:Meter:Cumulative,EnergyTransfer:Zone:ZONE OFFICE WHOLEBUILDING - LG OFFICE C END_B - STORY MID5,hourly; !- [J]
Output:Meter,Heating:EnergyTransfer:Zone:ZONE OFFICE WHOLEBUILDING - LG OFFICE C END_B - STORY MID5,hourly; !- [J]
Output:Meter:Cumulative,Heating:EnergyTransfer:Zone:ZONE OFFICE WHOLEBUILDING - LG OFFICE C END_B - STORY MID5,hourly; !- [J]
Output:Meter,General:Heating:EnergyTransfer:Zone:ZONE OFFICE WHOLEBUILDING - LG OFFICE C END_B - STORY MID5,hourly; !- [J]
Output:Meter:Cumulative,General:Heating:EnergyTransfer:Zone:ZONE OFFICE WHOLEBUILDING - LG OFFICE C END_B - STORY MID5,hourly; !- [J]
Output:Meter,Cooling:EnergyTransfer:Zone:ZONE OFFICE WHOLEBUILDING - LG OFFICE C END_B - STORY MID5,hourly; !- [J]
Output:Meter:Cumulative,Cooling:EnergyTransfer:Zone:ZONE OFFICE WHOLEBUILDING - LG OFFICE C END_B - STORY MID5,hourly; !- [J]
Output:Meter,General:Cooling:EnergyTransfer:Zone:ZONE OFFICE WHOLEBUILDING - LG OFFICE C END_B - STORY MID5,hourly; !- [J]
Output:Meter:Cumulative,General:Cooling:EnergyTransfer:Zone:ZONE OFFICE WHOLEBUILDING - LG OFFICE C END_B - STORY MID5,hourly; !- [J]
Output:Meter,EnergyTransfer:Zone:ZONE OFFICE WHOLEBUILDING - LG OFFICE C END_B - STORY MID6,hourly; !- [J]
Output:Meter:Cumulative,EnergyTransfer:Zone:ZONE OFFICE WHOLEBUILDING - LG OFFICE C END_B - STORY MID6,hourly; !- [J]
Output:Meter,Heating:EnergyTransfer:Zone:ZONE OFFICE WHOLEBUILDING - LG OFFICE C END_B - STORY MID6,hourly; !- [J]
Output:Meter:Cumulative,Heating:EnergyTransfer:Zone:ZONE OFFICE WHOLEBUILDING - LG OFFICE C END_B - STORY MID6,hourly; !- [J]
Output:Meter,General:Heating:EnergyTransfer:Zone:ZONE OFFICE WHOLEBUILDING - LG OFFICE C END_B - STORY MID6,hourly; !- [J]
Output:Meter:Cumulative,General:Heating:EnergyTransfer:Zone:ZONE OFFICE WHOLEBUILDING - LG OFFICE C END_B - STORY MID6,hourly; !- [J]
Output:Meter,Cooling:EnergyTransfer:Zone:ZONE OFFICE WHOLEBUILDING - LG OFFICE C END_B - STORY MID6,hourly; !- [J]
Output:Meter:Cumulative,Cooling:EnergyTransfer:Zone:ZONE OFFICE WHOLEBUILDING - LG OFFICE C END_B - STORY MID6,hourly; !- [J]
Output:Meter,General:Cooling:EnergyTransfer:Zone:ZONE OFFICE WHOLEBUILDING - LG OFFICE C END_B - STORY MID6,hourly; !- [J]
Output:Meter:Cumulative,General:Cooling:EnergyTransfer:Zone:ZONE OFFICE WHOLEBUILDING - LG OFFICE C END_B - STORY MID6,hourly; !- [J]
Output:Meter,EnergyTransfer:Zone:ZONE OFFICE WHOLEBUILDING - LG OFFICE C END_B - STORY MID7,hourly; !- [J]
Output:Meter:Cumulative,EnergyTransfer:Zone:ZONE OFFICE WHOLEBUILDING - LG OFFICE C END_B - STORY MID7,hourly; !- [J]
Output:Meter,Heating:EnergyTransfer:Zone:ZONE OFFICE WHOLEBUILDING - LG OFFICE C END_B - STORY MID7,hourly; !- [J]
Output:Meter:Cumulative,Heating:EnergyTransfer:Zone:ZONE OFFICE WHOLEBUILDING - LG OFFICE C END_B - STORY MID7,hourly; !- [J]
Output:Meter,General:Heating:EnergyTransfer:Zone:ZONE OFFICE WHOLEBUILDING - LG OFFICE C END_B - STORY MID7,hourly; !- [J]
Output:Meter:Cumulative,General:Heating:EnergyTransfer:Zone:ZONE OFFICE WHOLEBUILDING - LG OFFICE C END_B - STORY MID7,hourly; !- [J]
Output:Meter,Cooling:EnergyTransfer:Zone:ZONE OFFICE WHOLEBUILDING - LG OFFICE C END_B - STORY MID7,hourly; !- [J]
Output:Meter:Cumulative,Cooling:EnergyTransfer:Zone:ZONE OFFICE WHOLEBUILDING - LG OFFICE C END_B - STORY MID7,hourly; !- [J]
Output:Meter,General:Cooling:EnergyTransfer:Zone:ZONE OFFICE WHOLEBUILDING - LG OFFICE C END_B - STORY MID7,hourly; !- [J]
Output:Meter:Cumulative,General:Cooling:EnergyTransfer:Zone:ZONE OFFICE WHOLEBUILDING - LG OFFICE C END_B - STORY MID7,hourly; !- [J]
Output:Meter,EnergyTransfer:Zone:ZONE OFFICE WHOLEBUILDING - LG OFFICE C END_B - STORY MID8,hourly; !- [J]
Output:Meter:Cumulative,EnergyTransfer:Zone:ZONE OFFICE WHOLEBUILDING - LG OFFICE C END_B - STORY MID8,hourly; !- [J]
Output:Meter,Heating:EnergyTransfer:Zone:ZONE OFFICE WHOLEBUILDING - LG OFFICE C END_B - STORY MID8,hourly; !- [J]
Output:Meter:Cumulative,Heating:EnergyTransfer:Zone:ZONE OFFICE WHOLEBUILDING - LG OFFICE C END_B - STORY MID8,hourly; !- [J]
Output:Meter,General:Heating:EnergyTransfer:Zone:ZONE OFFICE WHOLEBUILDING - LG OFFICE C END_B - STORY MID8,hourly; !- [J]
Output:Meter:Cumulative,General:Heating:EnergyTransfer:Zone:ZONE OFFICE WHOLEBUILDING - LG OFFICE C END_B - STORY MID8,hourly; !- [J]
Output:Meter,Cooling:EnergyTransfer:Zone:ZONE OFFICE WHOLEBUILDING - LG OFFICE C END_B - STORY MID8,hourly; !- [J]
Output:Meter:Cumulative,Cooling:EnergyTransfer:Zone:ZONE OFFICE WHOLEBUILDING - LG OFFICE C END_B - STORY MID8,hourly; !- [J]
Output:Meter,General:Cooling:EnergyTransfer:Zone:ZONE OFFICE WHOLEBUILDING - LG OFFICE C END_B - STORY MID8,hourly; !- [J]
Output:Meter:Cumulative,General:Cooling:EnergyTransfer:Zone:ZONE OFFICE WHOLEBUILDING - LG OFFICE C END_B - STORY MID8,hourly; !- [J]
Output:Meter,EnergyTransfer:Zone:ZONE OFFICE WHOLEBUILDING - LG OFFICE C END_B - STORY MID9,hourly; !- [J]
Output:Meter:Cumulative,EnergyTransfer:Zone:ZONE OFFICE WHOLEBUILDING - LG OFFICE C END_B - STORY MID9,hourly; !- [J]
Output:Meter,Heating:EnergyTransfer:Zone:ZONE OFFICE WHOLEBUILDING - LG OFFICE C END_B - STORY MID9,hourly; !- [J]
Output:Meter:Cumulative,Heating:EnergyTransfer:Zone:ZONE OFFICE WHOLEBUILDING - LG OFFICE C END_B - STORY MID9,hourly; !- [J]
Output:Meter,General:Heating:EnergyTransfer:Zone:ZONE OFFICE WHOLEBUILDING - LG OFFICE C END_B - STORY MID9,hourly; !- [J]
Output:Meter:Cumulative,General:Heating:EnergyTransfer:Zone:ZONE OFFICE WHOLEBUILDING - LG OFFICE C END_B - STORY MID9,hourly; !- [J]
Output:Meter,Cooling:EnergyTransfer:Zone:ZONE OFFICE WHOLEBUILDING - LG OFFICE C END_B - STORY MID9,hourly; !- [J]
Output:Meter:Cumulative,Cooling:EnergyTransfer:Zone:ZONE OFFICE WHOLEBUILDING - LG OFFICE C END_B - STORY MID9,hourly; !- [J]
Output:Meter,General:Cooling:EnergyTransfer:Zone:ZONE OFFICE WHOLEBUILDING - LG OFFICE C END_B - STORY MID9,hourly; !- [J]
Output:Meter:Cumulative,General:Cooling:EnergyTransfer:Zone:ZONE OFFICE WHOLEBUILDING - LG OFFICE C END_B - STORY MID9,hourly; !- [J]
Output:Meter,EnergyTransfer:Zone:ZONE OFFICE WHOLEBUILDING - LG OFFICE C END_B - STORY TOP,hourly; !- [J]
Output:Meter:Cumulative,EnergyTransfer:Zone:ZONE OFFICE WHOLEBUILDING - LG OFFICE C END_B - STORY TOP,hourly; !- [J]
Output:Meter,Heating:EnergyTransfer:Zone:ZONE OFFICE WHOLEBUILDING - LG OFFICE C END_B - STORY TOP,hourly; !- [J]
Output:Meter:Cumulative,Heating:EnergyTransfer:Zone:ZONE OFFICE WHOLEBUILDING - LG OFFICE C END_B - STORY TOP,hourly; !- [J]
Output:Meter,General:Heating:EnergyTransfer:Zone:ZONE OFFICE WHOLEBUILDING - LG OFFICE C END_B - STORY TOP,hourly; !- [J]
Output:Meter:Cumulative,General:Heating:EnergyTransfer:Zone:ZONE OFFICE WHOLEBUILDING - LG OFFICE C END_B - STORY TOP,hourly; !- [J]
Output:Meter,Cooling:EnergyTransfer:Zone:ZONE OFFICE WHOLEBUILDING - LG OFFICE C END_B - STORY TOP,hourly; !- [J]
Output:Meter:Cumulative,Cooling:EnergyTransfer:Zone:ZONE OFFICE WHOLEBUILDING - LG OFFICE C END_B - STORY TOP,hourly; !- [J]
Output:Meter,General:Cooling:EnergyTransfer:Zone:ZONE OFFICE WHOLEBUILDING - LG OFFICE C END_B - STORY TOP,hourly; !- [J]
Output:Meter:Cumulative,General:Cooling:EnergyTransfer:Zone:ZONE OFFICE WHOLEBUILDING - LG OFFICE C END_B - STORY TOP,hourly; !- [J]
Output:Meter,PlantLoopHeatingDemand:Facility,hourly; !- [J]
Output:Meter:Cumulative,PlantLoopHeatingDemand:Facility,hourly; !- [J]
Output:Meter,PlantLoopHeatingDemand:Plant,hourly; !- [J]
Output:Meter:Cumulative,PlantLoopHeatingDemand:Plant,hourly; !- [J]
Output:Meter,WaterSystems:PlantLoopHeatingDemand,hourly; !- [J]
Output:Meter:Cumulative,WaterSystems:PlantLoopHeatingDemand,hourly; !- [J]
Output:Meter,General:WaterSystems:PlantLoopHeatingDemand,hourly; !- [J]
Output:Meter:Cumulative,General:WaterSystems:PlantLoopHeatingDemand,hourly; !- [J]
Output:Meter,ElectricityPurchased:Facility,hourly; !- [J]
Output:Meter:Cumulative,ElectricityPurchased:Facility,hourly; !- [J]
Output:Meter,ElectricityPurchased:Plant,hourly; !- [J]
Output:Meter:Cumulative,ElectricityPurchased:Plant,hourly; !- [J]
Output:Meter,Cogeneration:ElectricityPurchased,hourly; !- [J]
Output:Meter:Cumulative,Cogeneration:ElectricityPurchased,hourly; !- [J]
Output:Meter,General:Cogeneration:ElectricityPurchased,hourly; !- [J]
Output:Meter:Cumulative,General:Cogeneration:ElectricityPurchased,hourly; !- [J]
Output:Meter,ElectricitySurplusSold:Facility,hourly; !- [J]
Output:Meter:Cumulative,ElectricitySurplusSold:Facility,hourly; !- [J]
Output:Meter,ElectricitySurplusSold:Plant,hourly; !- [J]
Output:Meter:Cumulative,ElectricitySurplusSold:Plant,hourly; !- [J]
Output:Meter,Cogeneration:ElectricitySurplusSold,hourly; !- [J]
Output:Meter:Cumulative,Cogeneration:ElectricitySurplusSold,hourly; !- [J]
Output:Meter,General:Cogeneration:ElectricitySurplusSold,hourly; !- [J]
Output:Meter:Cumulative,General:Cogeneration:ElectricitySurplusSold,hourly; !- [J]
Output:Meter,ElectricityNet:Facility,hourly; !- [J]
Output:Meter:Cumulative,ElectricityNet:Facility,hourly; !- [J]
Output:Meter,ElectricityNet:Plant,hourly; !- [J]
Output:Meter:Cumulative,ElectricityNet:Plant,hourly; !- [J]
Output:Meter,Cogeneration:ElectricityNet,hourly; !- [J]
Output:Meter:Cumulative,Cogeneration:ElectricityNet,hourly; !- [J]
Output:Meter,General:Cogeneration:ElectricityNet,hourly; !- [J]
Output:Meter:Cumulative,General:Cogeneration:ElectricityNet,hourly; !- [J]
Output:Meter,Electricity:HVAC,hourly; !- [J]
Output:Meter:Cumulative,Electricity:HVAC,hourly; !- [J]
Output:Meter,Fans:Electricity,hourly; !- [J]
Output:Meter:Cumulative,Fans:Electricity,hourly; !- [J]
Output:Meter,General:Fans:Electricity,hourly; !- [J]
Output:Meter:Cumulative,General:Fans:Electricity,hourly; !- [J]
Output:Meter,VAV System Fans:Fans:Electricity,hourly; !- [J]
Output:Meter:Cumulative,VAV System Fans:Fans:Electricity,hourly; !- [J]
Output:Meter,EnergyTransfer:HVAC,hourly; !- [J]
Output:Meter:Cumulative,EnergyTransfer:HVAC,hourly; !- [J]
Output:Meter,HeatingCoils:EnergyTransfer,hourly; !- [J]
Output:Meter:Cumulative,HeatingCoils:EnergyTransfer,hourly; !- [J]
Output:Meter,Heating:Electricity,hourly; !- [J]
Output:Meter:Cumulative,Heating:Electricity,hourly; !- [J]
Output:Meter,General:Heating:Electricity,hourly; !- [J]
Output:Meter:Cumulative,General:Heating:Electricity,hourly; !- [J]
Output:Meter,ExteriorLights:Electricity,hourly; !- [J]
Output:Meter:Cumulative,ExteriorLights:Electricity,hourly; !- [J]
Output:Meter,Building Facades:ExteriorLights:Electricity,hourly; !- [J]
Output:Meter:Cumulative,Building Facades:ExteriorLights:Electricity,hourly; !- [J]
Output:Meter,Main Entries:ExteriorLights:Electricity,hourly; !- [J]
Output:Meter:Cumulative,Main Entries:ExteriorLights:Electricity,hourly; !- [J]
Output:Meter,Other Doors:ExteriorLights:Electricity,hourly; !- [J]
Output:Meter:Cumulative,Other Doors:ExteriorLights:Electricity,hourly; !- [J]
Output:Meter,Parking Areas and Drives:ExteriorLights:Electricity,hourly; !- [J]
Output:Meter:Cumulative,Parking Areas and Drives:ExteriorLights:Electricity,hourly; !- [J]
Output:Meter,CoolingCoils:EnergyTransfer,hourly; !- [J]
Output:Meter:Cumulative,CoolingCoils:EnergyTransfer,hourly; !- [J]
Output:Meter,Cooling:Electricity,hourly; !- [J]
Output:Meter:Cumulative,Cooling:Electricity,hourly; !- [J]
Output:Meter,General:Cooling:Electricity,hourly; !- [J]
Output:Meter:Cumulative,General:Cooling:Electricity,hourly; !- [J]
Output:Meter,Water:Facility,hourly; !- [m3]
Output:Meter:Cumulative,Water:Facility,hourly; !- [m3]
Output:Meter,Water:Plant,hourly; !- [m3]
Output:Meter:Cumulative,Water:Plant,hourly; !- [m3]
Output:Meter,WaterSystems:Water,hourly; !- [m3]
Output:Meter:Cumulative,WaterSystems:Water,hourly; !- [m3]
Output:Meter,General:WaterSystems:Water,hourly; !- [m3]
Output:Meter:Cumulative,General:WaterSystems:Water,hourly; !- [m3]
Output:Meter,MainsWater:Facility,hourly; !- [m3]
Output:Meter:Cumulative,MainsWater:Facility,hourly; !- [m3]
Output:Meter,MainsWater:Plant,hourly; !- [m3]
Output:Meter:Cumulative,MainsWater:Plant,hourly; !- [m3]
Output:Meter,WaterSystems:MainsWater,hourly; !- [m3]
Output:Meter:Cumulative,WaterSystems:MainsWater,hourly; !- [m3]
Output:Meter,General:WaterSystems:MainsWater,hourly; !- [m3]
Output:Meter:Cumulative,General:WaterSystems:MainsWater,hourly; !- [m3]
Output:Meter,EnergyTransfer:Plant,hourly; !- [J]
Output:Meter:Cumulative,EnergyTransfer:Plant,hourly; !- [J]
Output:Meter,WaterSystems:EnergyTransfer,hourly; !- [J]
Output:Meter:Cumulative,WaterSystems:EnergyTransfer,hourly; !- [J]
Output:Meter,General:WaterSystems:EnergyTransfer,hourly; !- [J]
Output:Meter:Cumulative,General:WaterSystems:EnergyTransfer,hourly; !- [J]
Output:Meter,Electricity:Plant,hourly; !- [J]
Output:Meter:Cumulative,Electricity:Plant,hourly; !- [J]
Output:Meter,WaterSystems:Electricity,hourly; !- [J]
Output:Meter:Cumulative,WaterSystems:Electricity,hourly; !- [J]
Output:Meter,General:WaterSystems:Electricity,hourly; !- [J]
Output:Meter:Cumulative,General:WaterSystems:Electricity,hourly; !- [J]
Output:Meter,Pumps:Electricity,hourly; !- [J]
Output:Meter:Cumulative,Pumps:Electricity,hourly; !- [J]
Output:Meter,General:Pumps:Electricity,hourly; !- [J]
Output:Meter:Cumulative,General:Pumps:Electricity,hourly; !- [J]
Output:Meter,Carbon Equivalent:Facility,hourly; !- [kg]
Output:Meter:Cumulative,Carbon Equivalent:Facility,hourly; !- [kg]
Output:Meter,CarbonEquivalentEmissions:Carbon Equivalent,hourly; !- [kg]
Output:Meter:Cumulative,CarbonEquivalentEmissions:Carbon Equivalent,hourly; !- [kg]
