Program Version,EnergyPlus, Version 23.2.0-7636e6b3e9, YMD=2024.01.24 11:06,
   ** Warning ** Timestep: Requested number (1) is less than the suggested minimum of 4.
   **   ~~~   ** Please see entry for Timestep in Input/Output Reference for discussion of considerations.
   ************* Beginning Zone Sizing Calculations
   ** Warning ** ProcessScheduleInput: DecodeHHMMField, Invalid "until" field value is not a multiple of the minutes for each timestep: 00:15
   **   ~~~   ** Other errors may result. Occurred in Day Schedule=OFFICE BLDG_LIGHT_ENDUSEDATA DEFAULT 1
   ** Warning ** ProcessScheduleInput: DecodeHHMMField, Invalid "until" field value is not a multiple of the minutes for each timestep: 00:30
   **   ~~~   ** Other errors may result. Occurred in Day Schedule=OFFICE BLDG_LIGHT_ENDUSEDATA DEFAULT 1
   ** Warning ** ProcessScheduleInput: DecodeHHMMField, Invalid "until" field value is not a multiple of the minutes for each timestep: 00:45
   **   ~~~   ** Other errors may result. Occurred in Day Schedule=OFFICE BLDG_LIGHT_ENDUSEDATA DEFAULT 1
   ** Warning ** ProcessScheduleInput: DecodeHHMMField, Invalid "until" field value is not a multiple of the minutes for each timestep: 01:15
   **   ~~~   ** Other errors may result. Occurred in Day Schedule=OFFICE BLDG_LIGHT_ENDUSEDATA DEFAULT 1
   ** Warning ** ProcessScheduleInput: DecodeHHMMField, Invalid "until" field value is not a multiple of the minutes for each timestep: 01:30
   **   ~~~   ** Other errors may result. Occurred in Day Schedule=OFFICE BLDG_LIGHT_ENDUSEDATA DEFAULT 1
   ** Warning ** ProcessScheduleInput: DecodeHHMMField, Invalid "until" field value is not a multiple of the minutes for each timestep: 01:45
   **   ~~~   ** Other errors may result. Occurred in Day Schedule=OFFICE BLDG_LIGHT_ENDUSEDATA DEFAULT 1
   ** Warning ** ProcessScheduleInput: DecodeHHMMField, Invalid "until" field value is not a multiple of the minutes for each timestep: 02:15
   **   ~~~   ** Other errors may result. Occurred in Day Schedule=OFFICE BLDG_LIGHT_ENDUSEDATA DEFAULT 1
   ** Warning ** ProcessScheduleInput: DecodeHHMMField, Invalid "until" field value is not a multiple of the minutes for each timestep: 02:30
   **   ~~~   ** Other errors may result. Occurred in Day Schedule=OFFICE BLDG_LIGHT_ENDUSEDATA DEFAULT 1
   ** Warning ** ProcessScheduleInput: DecodeHHMMField, Invalid "until" field value is not a multiple of the minutes for each timestep: 02:45
   **   ~~~   ** Other errors may result. Occurred in Day Schedule=OFFICE BLDG_LIGHT_ENDUSEDATA DEFAULT 1
   ** Warning ** ProcessScheduleInput: DecodeHHMMField, Invalid "until" field value is not a multiple of the minutes for each timestep: 03:15
   **   ~~~   ** Other errors may result. Occurred in Day Schedule=OFFICE BLDG_LIGHT_ENDUSEDATA DEFAULT 1
   ** Warning ** ProcessScheduleInput: DecodeHHMMField, Invalid "until" field value is not a multiple of the minutes for each timestep: 03:30
   **   ~~~   ** Other errors may result. Occurred in Day Schedule=OFFICE BLDG_LIGHT_ENDUSEDATA DEFAULT 1
   ** Warning ** ProcessScheduleInput: DecodeHHMMField, Invalid "until" field value is not a multiple of the minutes for each timestep: 03:45
   **   ~~~   ** Other errors may result. Occurred in Day Schedule=OFFICE BLDG_LIGHT_ENDUSEDATA DEFAULT 1
   ** Warning ** ProcessScheduleInput: DecodeHHMMField, Invalid "until" field value is not a multiple of the minutes for each timestep: 04:15
   **   ~~~   ** Other errors may result. Occurred in Day Schedule=OFFICE BLDG_LIGHT_ENDUSEDATA DEFAULT 1
   ** Warning ** ProcessScheduleInput: DecodeHHMMField, Invalid "until" field value is not a multiple of the minutes for each timestep: 04:30
   **   ~~~   ** Other errors may result. Occurred in Day Schedule=OFFICE BLDG_LIGHT_ENDUSEDATA DEFAULT 1
   ** Warning ** ProcessScheduleInput: DecodeHHMMField, Invalid "until" field value is not a multiple of the minutes for each timestep: 04:45
   **   ~~~   ** Other errors may result. Occurred in Day Schedule=OFFICE BLDG_LIGHT_ENDUSEDATA DEFAULT 1
   ** Warning ** ProcessScheduleInput: DecodeHHMMField, Invalid "until" field value is not a multiple of the minutes for each timestep: 05:15
   **   ~~~   ** Other errors may result. Occurred in Day Schedule=OFFICE BLDG_LIGHT_ENDUSEDATA DEFAULT 1
   ** Warning ** ProcessScheduleInput: DecodeHHMMField, Invalid "until" field value is not a multiple of the minutes for each timestep: 05:30
   **   ~~~   ** Other errors may result. Occurred in Day Schedule=OFFICE BLDG_LIGHT_ENDUSEDATA DEFAULT 1
   ** Warning ** ProcessScheduleInput: DecodeHHMMField, Invalid "until" field value is not a multiple of the minutes for each timestep: 05:45
   **   ~~~   ** Other errors may result. Occurred in Day Schedule=OFFICE BLDG_LIGHT_ENDUSEDATA DEFAULT 1
   ** Warning ** ProcessScheduleInput: DecodeHHMMField, Invalid "until" field value is not a multiple of the minutes for each timestep: 06:15
   **   ~~~   ** Other errors may result. Occurred in Day Schedule=OFFICE BLDG_LIGHT_ENDUSEDATA DEFAULT 1
   ** Warning ** ProcessScheduleInput: DecodeHHMMField, Invalid "until" field value is not a multiple of the minutes for each timestep: 06:30
   **   ~~~   ** Other errors may result. Occurred in Day Schedule=OFFICE BLDG_LIGHT_ENDUSEDATA DEFAULT 1
   ** Warning ** ProcessScheduleInput: DecodeHHMMField, Invalid "until" field value is not a multiple of the minutes for each timestep: 06:45
   **   ~~~   ** Other errors may result. Occurred in Day Schedule=OFFICE BLDG_LIGHT_ENDUSEDATA DEFAULT 1
   ** Warning ** ProcessScheduleInput: DecodeHHMMField, Invalid "until" field value is not a multiple of the minutes for each timestep: 07:15
   **   ~~~   ** Other errors may result. Occurred in Day Schedule=OFFICE BLDG_LIGHT_ENDUSEDATA DEFAULT 1
   ** Warning ** ProcessScheduleInput: DecodeHHMMField, Invalid "until" field value is not a multiple of the minutes for each timestep: 07:30
   **   ~~~   ** Other errors may result. Occurred in Day Schedule=OFFICE BLDG_LIGHT_ENDUSEDATA DEFAULT 1
   ** Warning ** ProcessScheduleInput: DecodeHHMMField, Invalid "until" field value is not a multiple of the minutes for each timestep: 07:45
   **   ~~~   ** Other errors may result. Occurred in Day Schedule=OFFICE BLDG_LIGHT_ENDUSEDATA DEFAULT 1
   ** Warning ** ProcessScheduleInput: DecodeHHMMField, Invalid "until" field value is not a multiple of the minutes for each timestep: 08:15
   **   ~~~   ** Other errors may result. Occurred in Day Schedule=OFFICE BLDG_LIGHT_ENDUSEDATA DEFAULT 1
   ** Warning ** ProcessScheduleInput: DecodeHHMMField, Invalid "until" field value is not a multiple of the minutes for each timestep: 08:30
   **   ~~~   ** Other errors may result. Occurred in Day Schedule=OFFICE BLDG_LIGHT_ENDUSEDATA DEFAULT 1
   ** Warning ** ProcessScheduleInput: DecodeHHMMField, Invalid "until" field value is not a multiple of the minutes for each timestep: 08:45
   **   ~~~   ** Other errors may result. Occurred in Day Schedule=OFFICE BLDG_LIGHT_ENDUSEDATA DEFAULT 1
   ** Warning ** ProcessScheduleInput: DecodeHHMMField, Invalid "until" field value is not a multiple of the minutes for each timestep: 09:11
   **   ~~~   ** Other errors may result. Occurred in Day Schedule=OFFICE BLDG_LIGHT_ENDUSEDATA DEFAULT 1
   ** Warning ** ProcessScheduleInput: DecodeHHMMField, Invalid "until" field value is not a multiple of the minutes for each timestep: 09:26
   **   ~~~   ** Other errors may result. Occurred in Day Schedule=OFFICE BLDG_LIGHT_ENDUSEDATA DEFAULT 1
   ** Warning ** ProcessScheduleInput: DecodeHHMMField, Invalid "until" field value is not a multiple of the minutes for each timestep: 09:41
   **   ~~~   ** Other errors may result. Occurred in Day Schedule=OFFICE BLDG_LIGHT_ENDUSEDATA DEFAULT 1
   ** Warning ** ProcessScheduleInput: DecodeHHMMField, Invalid "until" field value is not a multiple of the minutes for each timestep: 09:52
   **   ~~~   ** Other errors may result. Occurred in Day Schedule=OFFICE BLDG_LIGHT_ENDUSEDATA DEFAULT 1
   ** Warning ** ProcessScheduleInput: DecodeHHMMField, Invalid "until" field value is not a multiple of the minutes for each timestep: 10:07
   **   ~~~   ** Other errors may result. Occurred in Day Schedule=OFFICE BLDG_LIGHT_ENDUSEDATA DEFAULT 1
   ** Warning ** ProcessScheduleInput: DecodeHHMMField, Invalid "until" field value is not a multiple of the minutes for each timestep: 10:22
   **   ~~~   ** Other errors may result. Occurred in Day Schedule=OFFICE BLDG_LIGHT_ENDUSEDATA DEFAULT 1
   ** Warning ** ProcessScheduleInput: DecodeHHMMField, Invalid "until" field value is not a multiple of the minutes for each timestep: 10:37
   **   ~~~   ** Other errors may result. Occurred in Day Schedule=OFFICE BLDG_LIGHT_ENDUSEDATA DEFAULT 1
   ** Warning ** ProcessScheduleInput: DecodeHHMMField, Invalid "until" field value is not a multiple of the minutes for each timestep: 10:52
   **   ~~~   ** Other errors may result. Occurred in Day Schedule=OFFICE BLDG_LIGHT_ENDUSEDATA DEFAULT 1
   ** Warning ** ProcessScheduleInput: DecodeHHMMField, Invalid "until" field value is not a multiple of the minutes for each timestep: 11:07
   **   ~~~   ** Other errors may result. Occurred in Day Schedule=OFFICE BLDG_LIGHT_ENDUSEDATA DEFAULT 1
   ** Warning ** ProcessScheduleInput: DecodeHHMMField, Invalid "until" field value is not a multiple of the minutes for each timestep: 11:22
   **   ~~~   ** Other errors may result. Occurred in Day Schedule=OFFICE BLDG_LIGHT_ENDUSEDATA DEFAULT 1
   ** Warning ** ProcessScheduleInput: DecodeHHMMField, Invalid "until" field value is not a multiple of the minutes for each timestep: 11:37
   **   ~~~   ** Other errors may result. Occurred in Day Schedule=OFFICE BLDG_LIGHT_ENDUSEDATA DEFAULT 1
   ** Warning ** ProcessScheduleInput: DecodeHHMMField, Invalid "until" field value is not a multiple of the minutes for each timestep: 11:52
   **   ~~~   ** Other errors may result. Occurred in Day Schedule=OFFICE BLDG_LIGHT_ENDUSEDATA DEFAULT 1
   ** Warning ** ProcessScheduleInput: DecodeHHMMField, Invalid "until" field value is not a multiple of the minutes for each timestep: 12:07
   **   ~~~   ** Other errors may result. Occurred in Day Schedule=OFFICE BLDG_LIGHT_ENDUSEDATA DEFAULT 1
   ** Warning ** ProcessScheduleInput: DecodeHHMMField, Invalid "until" field value is not a multiple of the minutes for each timestep: 12:22
   **   ~~~   ** Other errors may result. Occurred in Day Schedule=OFFICE BLDG_LIGHT_ENDUSEDATA DEFAULT 1
   ** Warning ** ProcessScheduleInput: DecodeHHMMField, Invalid "until" field value is not a multiple of the minutes for each timestep: 12:37
   **   ~~~   ** Other errors may result. Occurred in Day Schedule=OFFICE BLDG_LIGHT_ENDUSEDATA DEFAULT 1
   ** Warning ** ProcessScheduleInput: DecodeHHMMField, Invalid "until" field value is not a multiple of the minutes for each timestep: 12:52
   **   ~~~   ** Other errors may result. Occurred in Day Schedule=OFFICE BLDG_LIGHT_ENDUSEDATA DEFAULT 1
   ** Warning ** ProcessScheduleInput: DecodeHHMMField, Invalid "until" field value is not a multiple of the minutes for each timestep: 13:07
   **   ~~~   ** Other errors may result. Occurred in Day Schedule=OFFICE BLDG_LIGHT_ENDUSEDATA DEFAULT 1
   ** Warning ** ProcessScheduleInput: DecodeHHMMField, Invalid "until" field value is not a multiple of the minutes for each timestep: 13:22
   **   ~~~   ** Other errors may result. Occurred in Day Schedule=OFFICE BLDG_LIGHT_ENDUSEDATA DEFAULT 1
   ** Warning ** ProcessScheduleInput: DecodeHHMMField, Invalid "until" field value is not a multiple of the minutes for each timestep: 13:33
   **   ~~~   ** Other errors may result. Occurred in Day Schedule=OFFICE BLDG_LIGHT_ENDUSEDATA DEFAULT 1
   ** Warning ** ProcessScheduleInput: DecodeHHMMField, Invalid "until" field value is not a multiple of the minutes for each timestep: 13:48
   **   ~~~   ** Other errors may result. Occurred in Day Schedule=OFFICE BLDG_LIGHT_ENDUSEDATA DEFAULT 1
   ** Warning ** ProcessScheduleInput: DecodeHHMMField, Invalid "until" field value is not a multiple of the minutes for each timestep: 14:03
   **   ~~~   ** Other errors may result. Occurred in Day Schedule=OFFICE BLDG_LIGHT_ENDUSEDATA DEFAULT 1
   ** Warning ** ProcessScheduleInput: DecodeHHMMField, Invalid "until" field value is not a multiple of the minutes for each timestep: 14:15
   **   ~~~   ** Other errors may result. Occurred in Day Schedule=OFFICE BLDG_LIGHT_ENDUSEDATA DEFAULT 1
   ** Warning ** ProcessScheduleInput: DecodeHHMMField, Invalid "until" field value is not a multiple of the minutes for each timestep: 14:30
   **   ~~~   ** Other errors may result. Occurred in Day Schedule=OFFICE BLDG_LIGHT_ENDUSEDATA DEFAULT 1
   ** Warning ** ProcessScheduleInput: DecodeHHMMField, Invalid "until" field value is not a multiple of the minutes for each timestep: 14:45
   **   ~~~   ** Other errors may result. Occurred in Day Schedule=OFFICE BLDG_LIGHT_ENDUSEDATA DEFAULT 1
   ** Warning ** ProcessScheduleInput: DecodeHHMMField, Invalid "until" field value is not a multiple of the minutes for each timestep: 15:15
   **   ~~~   ** Other errors may result. Occurred in Day Schedule=OFFICE BLDG_LIGHT_ENDUSEDATA DEFAULT 1
   ** Warning ** ProcessScheduleInput: DecodeHHMMField, Invalid "until" field value is not a multiple of the minutes for each timestep: 15:30
   **   ~~~   ** Other errors may result. Occurred in Day Schedule=OFFICE BLDG_LIGHT_ENDUSEDATA DEFAULT 1
   ** Warning ** ProcessScheduleInput: DecodeHHMMField, Invalid "until" field value is not a multiple of the minutes for each timestep: 15:45
   **   ~~~   ** Other errors may result. Occurred in Day Schedule=OFFICE BLDG_LIGHT_ENDUSEDATA DEFAULT 1
   ** Warning ** ProcessScheduleInput: DecodeHHMMField, Invalid "until" field value is not a multiple of the minutes for each timestep: 16:15
   **   ~~~   ** Other errors may result. Occurred in Day Schedule=OFFICE BLDG_LIGHT_ENDUSEDATA DEFAULT 1
   ** Warning ** ProcessScheduleInput: DecodeHHMMField, Invalid "until" field value is not a multiple of the minutes for each timestep: 16:30
   **   ~~~   ** Other errors may result. Occurred in Day Schedule=OFFICE BLDG_LIGHT_ENDUSEDATA DEFAULT 1
   ** Warning ** ProcessScheduleInput: DecodeHHMMField, Invalid "until" field value is not a multiple of the minutes for each timestep: 16:45
   **   ~~~   ** Other errors may result. Occurred in Day Schedule=OFFICE BLDG_LIGHT_ENDUSEDATA DEFAULT 1
   ** Warning ** ProcessScheduleInput: DecodeHHMMField, Invalid "until" field value is not a multiple of the minutes for each timestep: 17:15
   **   ~~~   ** Other errors may result. Occurred in Day Schedule=OFFICE BLDG_LIGHT_ENDUSEDATA DEFAULT 1
   ** Warning ** ProcessScheduleInput: DecodeHHMMField, Invalid "until" field value is not a multiple of the minutes for each timestep: 17:30
   **   ~~~   ** Other errors may result. Occurred in Day Schedule=OFFICE BLDG_LIGHT_ENDUSEDATA DEFAULT 1
   ** Warning ** ProcessScheduleInput: DecodeHHMMField, Invalid "until" field value is not a multiple of the minutes for each timestep: 17:45
   **   ~~~   ** Other errors may result. Occurred in Day Schedule=OFFICE BLDG_LIGHT_ENDUSEDATA DEFAULT 1
   ** Warning ** ProcessScheduleInput: DecodeHHMMField, Invalid "until" field value is not a multiple of the minutes for each timestep: 18:15
   **   ~~~   ** Other errors may result. Occurred in Day Schedule=OFFICE BLDG_LIGHT_ENDUSEDATA DEFAULT 1
   ** Warning ** ProcessScheduleInput: DecodeHHMMField, Invalid "until" field value is not a multiple of the minutes for each timestep: 18:30
   **   ~~~   ** Other errors may result. Occurred in Day Schedule=OFFICE BLDG_LIGHT_ENDUSEDATA DEFAULT 1
   ** Warning ** ProcessScheduleInput: DecodeHHMMField, Invalid "until" field value is not a multiple of the minutes for each timestep: 18:45
   **   ~~~   ** Other errors may result. Occurred in Day Schedule=OFFICE BLDG_LIGHT_ENDUSEDATA DEFAULT 1
   ** Warning ** ProcessScheduleInput: DecodeHHMMField, Invalid "until" field value is not a multiple of the minutes for each timestep: 19:15
   **   ~~~   ** Other errors may result. Occurred in Day Schedule=OFFICE BLDG_LIGHT_ENDUSEDATA DEFAULT 1
   ** Warning ** ProcessScheduleInput: DecodeHHMMField, Invalid "until" field value is not a multiple of the minutes for each timestep: 19:30
   **   ~~~   ** Other errors may result. Occurred in Day Schedule=OFFICE BLDG_LIGHT_ENDUSEDATA DEFAULT 1
   ** Warning ** ProcessScheduleInput: DecodeHHMMField, Invalid "until" field value is not a multiple of the minutes for each timestep: 19:45
   **   ~~~   ** Other errors may result. Occurred in Day Schedule=OFFICE BLDG_LIGHT_ENDUSEDATA DEFAULT 1
   ** Warning ** ProcessScheduleInput: DecodeHHMMField, Invalid "until" field value is not a multiple of the minutes for each timestep: 20:15
   **   ~~~   ** Other errors may result. Occurred in Day Schedule=OFFICE BLDG_LIGHT_ENDUSEDATA DEFAULT 1
   ** Warning ** ProcessScheduleInput: DecodeHHMMField, Invalid "until" field value is not a multiple of the minutes for each timestep: 20:30
   **   ~~~   ** Other errors may result. Occurred in Day Schedule=OFFICE BLDG_LIGHT_ENDUSEDATA DEFAULT 1
   ** Warning ** ProcessScheduleInput: DecodeHHMMField, Invalid "until" field value is not a multiple of the minutes for each timestep: 20:45
   **   ~~~   ** Other errors may result. Occurred in Day Schedule=OFFICE BLDG_LIGHT_ENDUSEDATA DEFAULT 1
   ** Warning ** ProcessScheduleInput: DecodeHHMMField, Invalid "until" field value is not a multiple of the minutes for each timestep: 21:15
   **   ~~~   ** Other errors may result. Occurred in Day Schedule=OFFICE BLDG_LIGHT_ENDUSEDATA DEFAULT 1
   ** Warning ** ProcessScheduleInput: DecodeHHMMField, Invalid "until" field value is not a multiple of the minutes for each timestep: 21:30
   **   ~~~   ** Other errors may result. Occurred in Day Schedule=OFFICE BLDG_LIGHT_ENDUSEDATA DEFAULT 1
   ** Warning ** ProcessScheduleInput: DecodeHHMMField, Invalid "until" field value is not a multiple of the minutes for each timestep: 21:45
   **   ~~~   ** Other errors may result. Occurred in Day Schedule=OFFICE BLDG_LIGHT_ENDUSEDATA DEFAULT 1
   ** Warning ** ProcessScheduleInput: DecodeHHMMField, Invalid "until" field value is not a multiple of the minutes for each timestep: 22:15
   **   ~~~   ** Other errors may result. Occurred in Day Schedule=OFFICE BLDG_LIGHT_ENDUSEDATA DEFAULT 1
   ** Warning ** ProcessScheduleInput: DecodeHHMMField, Invalid "until" field value is not a multiple of the minutes for each timestep: 22:30
   **   ~~~   ** Other errors may result. Occurred in Day Schedule=OFFICE BLDG_LIGHT_ENDUSEDATA DEFAULT 1
   ** Warning ** ProcessScheduleInput: DecodeHHMMField, Invalid "until" field value is not a multiple of the minutes for each timestep: 22:45
   **   ~~~   ** Other errors may result. Occurred in Day Schedule=OFFICE BLDG_LIGHT_ENDUSEDATA DEFAULT 1
   ** Warning ** ProcessScheduleInput: DecodeHHMMField, Invalid "until" field value is not a multiple of the minutes for each timestep: 23:15
   **   ~~~   ** Other errors may result. Occurred in Day Schedule=OFFICE BLDG_LIGHT_ENDUSEDATA DEFAULT 1
   ** Warning ** ProcessScheduleInput: DecodeHHMMField, Invalid "until" field value is not a multiple of the minutes for each timestep: 23:30
   **   ~~~   ** Other errors may result. Occurred in Day Schedule=OFFICE BLDG_LIGHT_ENDUSEDATA DEFAULT 1
   ** Warning ** ProcessScheduleInput: DecodeHHMMField, Invalid "until" field value is not a multiple of the minutes for each timestep: 23:45
   **   ~~~   ** Other errors may result. Occurred in Day Schedule=OFFICE BLDG_LIGHT_ENDUSEDATA DEFAULT 1
   ** Warning ** ProcessScheduleInput: DecodeHHMMField, Invalid "until" field value is not a multiple of the minutes for each timestep: 00:15
   **   ~~~   ** Other errors may result. Occurred in Day Schedule=OFFICE BLDG_EQUIP_ENDUSEDATA DEFAULT 1
   ** Warning ** ProcessScheduleInput: DecodeHHMMField, Invalid "until" field value is not a multiple of the minutes for each timestep: 00:30
   **   ~~~   ** Other errors may result. Occurred in Day Schedule=OFFICE BLDG_EQUIP_ENDUSEDATA DEFAULT 1
   ** Warning ** ProcessScheduleInput: DecodeHHMMField, Invalid "until" field value is not a multiple of the minutes for each timestep: 00:45
   **   ~~~   ** Other errors may result. Occurred in Day Schedule=OFFICE BLDG_EQUIP_ENDUSEDATA DEFAULT 1
   ** Warning ** ProcessScheduleInput: DecodeHHMMField, Invalid "until" field value is not a multiple of the minutes for each timestep: 01:15
   **   ~~~   ** Other errors may result. Occurred in Day Schedule=OFFICE BLDG_EQUIP_ENDUSEDATA DEFAULT 1
   ** Warning ** ProcessScheduleInput: DecodeHHMMField, Invalid "until" field value is not a multiple of the minutes for each timestep: 01:30
   **   ~~~   ** Other errors may result. Occurred in Day Schedule=OFFICE BLDG_EQUIP_ENDUSEDATA DEFAULT 1
   ** Warning ** ProcessScheduleInput: DecodeHHMMField, Invalid "until" field value is not a multiple of the minutes for each timestep: 01:45
   **   ~~~   ** Other errors may result. Occurred in Day Schedule=OFFICE BLDG_EQUIP_ENDUSEDATA DEFAULT 1
   ** Warning ** ProcessScheduleInput: DecodeHHMMField, Invalid "until" field value is not a multiple of the minutes for each timestep: 02:15
   **   ~~~   ** Other errors may result. Occurred in Day Schedule=OFFICE BLDG_EQUIP_ENDUSEDATA DEFAULT 1
   ** Warning ** ProcessScheduleInput: DecodeHHMMField, Invalid "until" field value is not a multiple of the minutes for each timestep: 02:30
   **   ~~~   ** Other errors may result. Occurred in Day Schedule=OFFICE BLDG_EQUIP_ENDUSEDATA DEFAULT 1
   ** Warning ** ProcessScheduleInput: DecodeHHMMField, Invalid "until" field value is not a multiple of the minutes for each timestep: 02:45
   **   ~~~   ** Other errors may result. Occurred in Day Schedule=OFFICE BLDG_EQUIP_ENDUSEDATA DEFAULT 1
   ** Warning ** ProcessScheduleInput: DecodeHHMMField, Invalid "until" field value is not a multiple of the minutes for each timestep: 03:15
   **   ~~~   ** Other errors may result. Occurred in Day Schedule=OFFICE BLDG_EQUIP_ENDUSEDATA DEFAULT 1
   ** Warning ** ProcessScheduleInput: DecodeHHMMField, Invalid "until" field value is not a multiple of the minutes for each timestep: 03:30
   **   ~~~   ** Other errors may result. Occurred in Day Schedule=OFFICE BLDG_EQUIP_ENDUSEDATA DEFAULT 1
   ** Warning ** ProcessScheduleInput: DecodeHHMMField, Invalid "until" field value is not a multiple of the minutes for each timestep: 03:45
   **   ~~~   ** Other errors may result. Occurred in Day Schedule=OFFICE BLDG_EQUIP_ENDUSEDATA DEFAULT 1
   ** Warning ** ProcessScheduleInput: DecodeHHMMField, Invalid "until" field value is not a multiple of the minutes for each timestep: 04:15
   **   ~~~   ** Other errors may result. Occurred in Day Schedule=OFFICE BLDG_EQUIP_ENDUSEDATA DEFAULT 1
   ** Warning ** ProcessScheduleInput: DecodeHHMMField, Invalid "until" field value is not a multiple of the minutes for each timestep: 04:30
   **   ~~~   ** Other errors may result. Occurred in Day Schedule=OFFICE BLDG_EQUIP_ENDUSEDATA DEFAULT 1
   ** Warning ** ProcessScheduleInput: DecodeHHMMField, Invalid "until" field value is not a multiple of the minutes for each timestep: 04:45
   **   ~~~   ** Other errors may result. Occurred in Day Schedule=OFFICE BLDG_EQUIP_ENDUSEDATA DEFAULT 1
   ** Warning ** ProcessScheduleInput: DecodeHHMMField, Invalid "until" field value is not a multiple of the minutes for each timestep: 05:15
   **   ~~~   ** Other errors may result. Occurred in Day Schedule=OFFICE BLDG_EQUIP_ENDUSEDATA DEFAULT 1
   ** Warning ** ProcessScheduleInput: DecodeHHMMField, Invalid "until" field value is not a multiple of the minutes for each timestep: 05:30
   **   ~~~   ** Other errors may result. Occurred in Day Schedule=OFFICE BLDG_EQUIP_ENDUSEDATA DEFAULT 1
   ** Warning ** ProcessScheduleInput: DecodeHHMMField, Invalid "until" field value is not a multiple of the minutes for each timestep: 05:45
   **   ~~~   ** Other errors may result. Occurred in Day Schedule=OFFICE BLDG_EQUIP_ENDUSEDATA DEFAULT 1
   ** Warning ** ProcessScheduleInput: DecodeHHMMField, Invalid "until" field value is not a multiple of the minutes for each timestep: 06:15
   **   ~~~   ** Other errors may result. Occurred in Day Schedule=OFFICE BLDG_EQUIP_ENDUSEDATA DEFAULT 1
   ** Warning ** ProcessScheduleInput: DecodeHHMMField, Invalid "until" field value is not a multiple of the minutes for each timestep: 06:30
   **   ~~~   ** Other errors may result. Occurred in Day Schedule=OFFICE BLDG_EQUIP_ENDUSEDATA DEFAULT 1
   ** Warning ** ProcessScheduleInput: DecodeHHMMField, Invalid "until" field value is not a multiple of the minutes for each timestep: 06:45
   **   ~~~   ** Other errors may result. Occurred in Day Schedule=OFFICE BLDG_EQUIP_ENDUSEDATA DEFAULT 1
   ** Warning ** ProcessScheduleInput: DecodeHHMMField, Invalid "until" field value is not a multiple of the minutes for each timestep: 07:15
   **   ~~~   ** Other errors may result. Occurred in Day Schedule=OFFICE BLDG_EQUIP_ENDUSEDATA DEFAULT 1
   ** Warning ** ProcessScheduleInput: DecodeHHMMField, Invalid "until" field value is not a multiple of the minutes for each timestep: 07:30
   **   ~~~   ** Other errors may result. Occurred in Day Schedule=OFFICE BLDG_EQUIP_ENDUSEDATA DEFAULT 1
   ** Warning ** ProcessScheduleInput: DecodeHHMMField, Invalid "until" field value is not a multiple of the minutes for each timestep: 07:45
   **   ~~~   ** Other errors may result. Occurred in Day Schedule=OFFICE BLDG_EQUIP_ENDUSEDATA DEFAULT 1
   ** Warning ** ProcessScheduleInput: DecodeHHMMField, Invalid "until" field value is not a multiple of the minutes for each timestep: 08:15
   **   ~~~   ** Other errors may result. Occurred in Day Schedule=OFFICE BLDG_EQUIP_ENDUSEDATA DEFAULT 1
   ** Warning ** ProcessScheduleInput: DecodeHHMMField, Invalid "until" field value is not a multiple of the minutes for each timestep: 08:30
   **   ~~~   ** Other errors may result. Occurred in Day Schedule=OFFICE BLDG_EQUIP_ENDUSEDATA DEFAULT 1
   ** Warning ** ProcessScheduleInput: DecodeHHMMField, Invalid "until" field value is not a multiple of the minutes for each timestep: 08:45
   **   ~~~   ** Other errors may result. Occurred in Day Schedule=OFFICE BLDG_EQUIP_ENDUSEDATA DEFAULT 1
   ** Warning ** ProcessScheduleInput: DecodeHHMMField, Invalid "until" field value is not a multiple of the minutes for each timestep: 09:11
   **   ~~~   ** Other errors may result. Occurred in Day Schedule=OFFICE BLDG_EQUIP_ENDUSEDATA DEFAULT 1
   ** Warning ** ProcessScheduleInput: DecodeHHMMField, Invalid "until" field value is not a multiple of the minutes for each timestep: 09:26
   **   ~~~   ** Other errors may result. Occurred in Day Schedule=OFFICE BLDG_EQUIP_ENDUSEDATA DEFAULT 1
   ** Warning ** ProcessScheduleInput: DecodeHHMMField, Invalid "until" field value is not a multiple of the minutes for each timestep: 09:41
   **   ~~~   ** Other errors may result. Occurred in Day Schedule=OFFICE BLDG_EQUIP_ENDUSEDATA DEFAULT 1
   ** Warning ** ProcessScheduleInput: DecodeHHMMField, Invalid "until" field value is not a multiple of the minutes for each timestep: 09:52
   **   ~~~   ** Other errors may result. Occurred in Day Schedule=OFFICE BLDG_EQUIP_ENDUSEDATA DEFAULT 1
   ** Warning ** ProcessScheduleInput: DecodeHHMMField, Invalid "until" field value is not a multiple of the minutes for each timestep: 10:07
   **   ~~~   ** Other errors may result. Occurred in Day Schedule=OFFICE BLDG_EQUIP_ENDUSEDATA DEFAULT 1
   ** Warning ** ProcessScheduleInput: DecodeHHMMField, Invalid "until" field value is not a multiple of the minutes for each timestep: 10:22
   **   ~~~   ** Other errors may result. Occurred in Day Schedule=OFFICE BLDG_EQUIP_ENDUSEDATA DEFAULT 1
   ** Warning ** ProcessScheduleInput: DecodeHHMMField, Invalid "until" field value is not a multiple of the minutes for each timestep: 10:37
   **   ~~~   ** Other errors may result. Occurred in Day Schedule=OFFICE BLDG_EQUIP_ENDUSEDATA DEFAULT 1
   ** Warning ** ProcessScheduleInput: DecodeHHMMField, Invalid "until" field value is not a multiple of the minutes for each timestep: 10:52
   **   ~~~   ** Other errors may result. Occurred in Day Schedule=OFFICE BLDG_EQUIP_ENDUSEDATA DEFAULT 1
   ** Warning ** ProcessScheduleInput: DecodeHHMMField, Invalid "until" field value is not a multiple of the minutes for each timestep: 11:07
   **   ~~~   ** Other errors may result. Occurred in Day Schedule=OFFICE BLDG_EQUIP_ENDUSEDATA DEFAULT 1
   ** Warning ** ProcessScheduleInput: DecodeHHMMField, Invalid "until" field value is not a multiple of the minutes for each timestep: 11:22
   **   ~~~   ** Other errors may result. Occurred in Day Schedule=OFFICE BLDG_EQUIP_ENDUSEDATA DEFAULT 1
   ** Warning ** ProcessScheduleInput: DecodeHHMMField, Invalid "until" field value is not a multiple of the minutes for each timestep: 11:37
   **   ~~~   ** Other errors may result. Occurred in Day Schedule=OFFICE BLDG_EQUIP_ENDUSEDATA DEFAULT 1
   ** Warning ** ProcessScheduleInput: DecodeHHMMField, Invalid "until" field value is not a multiple of the minutes for each timestep: 11:52
   **   ~~~   ** Other errors may result. Occurred in Day Schedule=OFFICE BLDG_EQUIP_ENDUSEDATA DEFAULT 1
   ** Warning ** ProcessScheduleInput: DecodeHHMMField, Invalid "until" field value is not a multiple of the minutes for each timestep: 12:07
   **   ~~~   ** Other errors may result. Occurred in Day Schedule=OFFICE BLDG_EQUIP_ENDUSEDATA DEFAULT 1
   ** Warning ** ProcessScheduleInput: DecodeHHMMField, Invalid "until" field value is not a multiple of the minutes for each timestep: 12:22
   **   ~~~   ** Other errors may result. Occurred in Day Schedule=OFFICE BLDG_EQUIP_ENDUSEDATA DEFAULT 1
   ** Warning ** ProcessScheduleInput: DecodeHHMMField, Invalid "until" field value is not a multiple of the minutes for each timestep: 12:37
   **   ~~~   ** Other errors may result. Occurred in Day Schedule=OFFICE BLDG_EQUIP_ENDUSEDATA DEFAULT 1
   ** Warning ** ProcessScheduleInput: DecodeHHMMField, Invalid "until" field value is not a multiple of the minutes for each timestep: 12:52
   **   ~~~   ** Other errors may result. Occurred in Day Schedule=OFFICE BLDG_EQUIP_ENDUSEDATA DEFAULT 1
   ** Warning ** ProcessScheduleInput: DecodeHHMMField, Invalid "until" field value is not a multiple of the minutes for each timestep: 13:07
   **   ~~~   ** Other errors may result. Occurred in Day Schedule=OFFICE BLDG_EQUIP_ENDUSEDATA DEFAULT 1
   ** Warning ** ProcessScheduleInput: DecodeHHMMField, Invalid "until" field value is not a multiple of the minutes for each timestep: 13:22
   **   ~~~   ** Other errors may result. Occurred in Day Schedule=OFFICE BLDG_EQUIP_ENDUSEDATA DEFAULT 1
   ** Warning ** ProcessScheduleInput: DecodeHHMMField, Invalid "until" field value is not a multiple of the minutes for each timestep: 13:33
   **   ~~~   ** Other errors may result. Occurred in Day Schedule=OFFICE BLDG_EQUIP_ENDUSEDATA DEFAULT 1
   ** Warning ** ProcessScheduleInput: DecodeHHMMField, Invalid "until" field value is not a multiple of the minutes for each timestep: 13:48
   **   ~~~   ** Other errors may result. Occurred in Day Schedule=OFFICE BLDG_EQUIP_ENDUSEDATA DEFAULT 1
   ** Warning ** ProcessScheduleInput: DecodeHHMMField, Invalid "until" field value is not a multiple of the minutes for each timestep: 14:03
   **   ~~~   ** Other errors may result. Occurred in Day Schedule=OFFICE BLDG_EQUIP_ENDUSEDATA DEFAULT 1
   ** Warning ** ProcessScheduleInput: DecodeHHMMField, Invalid "until" field value is not a multiple of the minutes for each timestep: 14:15
   **   ~~~   ** Other errors may result. Occurred in Day Schedule=OFFICE BLDG_EQUIP_ENDUSEDATA DEFAULT 1
   ** Warning ** ProcessScheduleInput: DecodeHHMMField, Invalid "until" field value is not a multiple of the minutes for each timestep: 14:30
   **   ~~~   ** Other errors may result. Occurred in Day Schedule=OFFICE BLDG_EQUIP_ENDUSEDATA DEFAULT 1
   ** Warning ** ProcessScheduleInput: DecodeHHMMField, Invalid "until" field value is not a multiple of the minutes for each timestep: 14:45
   **   ~~~   ** Other errors may result. Occurred in Day Schedule=OFFICE BLDG_EQUIP_ENDUSEDATA DEFAULT 1
   ** Warning ** ProcessScheduleInput: DecodeHHMMField, Invalid "until" field value is not a multiple of the minutes for each timestep: 15:15
   **   ~~~   ** Other errors may result. Occurred in Day Schedule=OFFICE BLDG_EQUIP_ENDUSEDATA DEFAULT 1
   ** Warning ** ProcessScheduleInput: DecodeHHMMField, Invalid "until" field value is not a multiple of the minutes for each timestep: 15:30
   **   ~~~   ** Other errors may result. Occurred in Day Schedule=OFFICE BLDG_EQUIP_ENDUSEDATA DEFAULT 1
   ** Warning ** ProcessScheduleInput: DecodeHHMMField, Invalid "until" field value is not a multiple of the minutes for each timestep: 15:45
   **   ~~~   ** Other errors may result. Occurred in Day Schedule=OFFICE BLDG_EQUIP_ENDUSEDATA DEFAULT 1
   ** Warning ** ProcessScheduleInput: DecodeHHMMField, Invalid "until" field value is not a multiple of the minutes for each timestep: 16:15
   **   ~~~   ** Other errors may result. Occurred in Day Schedule=OFFICE BLDG_EQUIP_ENDUSEDATA DEFAULT 1
   ** Warning ** ProcessScheduleInput: DecodeHHMMField, Invalid "until" field value is not a multiple of the minutes for each timestep: 16:30
   **   ~~~   ** Other errors may result. Occurred in Day Schedule=OFFICE BLDG_EQUIP_ENDUSEDATA DEFAULT 1
   ** Warning ** ProcessScheduleInput: DecodeHHMMField, Invalid "until" field value is not a multiple of the minutes for each timestep: 16:45
   **   ~~~   ** Other errors may result. Occurred in Day Schedule=OFFICE BLDG_EQUIP_ENDUSEDATA DEFAULT 1
   ** Warning ** ProcessScheduleInput: DecodeHHMMField, Invalid "until" field value is not a multiple of the minutes for each timestep: 17:15
   **   ~~~   ** Other errors may result. Occurred in Day Schedule=OFFICE BLDG_EQUIP_ENDUSEDATA DEFAULT 1
   ** Warning ** ProcessScheduleInput: DecodeHHMMField, Invalid "until" field value is not a multiple of the minutes for each timestep: 17:30
   **   ~~~   ** Other errors may result. Occurred in Day Schedule=OFFICE BLDG_EQUIP_ENDUSEDATA DEFAULT 1
   ** Warning ** ProcessScheduleInput: DecodeHHMMField, Invalid "until" field value is not a multiple of the minutes for each timestep: 17:45
   **   ~~~   ** Other errors may result. Occurred in Day Schedule=OFFICE BLDG_EQUIP_ENDUSEDATA DEFAULT 1
   ** Warning ** ProcessScheduleInput: DecodeHHMMField, Invalid "until" field value is not a multiple of the minutes for each timestep: 18:15
   **   ~~~   ** Other errors may result. Occurred in Day Schedule=OFFICE BLDG_EQUIP_ENDUSEDATA DEFAULT 1
   ** Warning ** ProcessScheduleInput: DecodeHHMMField, Invalid "until" field value is not a multiple of the minutes for each timestep: 18:30
   **   ~~~   ** Other errors may result. Occurred in Day Schedule=OFFICE BLDG_EQUIP_ENDUSEDATA DEFAULT 1
   ** Warning ** ProcessScheduleInput: DecodeHHMMField, Invalid "until" field value is not a multiple of the minutes for each timestep: 18:45
   **   ~~~   ** Other errors may result. Occurred in Day Schedule=OFFICE BLDG_EQUIP_ENDUSEDATA DEFAULT 1
   ** Warning ** ProcessScheduleInput: DecodeHHMMField, Invalid "until" field value is not a multiple of the minutes for each timestep: 19:15
   **   ~~~   ** Other errors may result. Occurred in Day Schedule=OFFICE BLDG_EQUIP_ENDUSEDATA DEFAULT 1
   ** Warning ** ProcessScheduleInput: DecodeHHMMField, Invalid "until" field value is not a multiple of the minutes for each timestep: 19:30
   **   ~~~   ** Other errors may result. Occurred in Day Schedule=OFFICE BLDG_EQUIP_ENDUSEDATA DEFAULT 1
   ** Warning ** ProcessScheduleInput: DecodeHHMMField, Invalid "until" field value is not a multiple of the minutes for each timestep: 19:45
   **   ~~~   ** Other errors may result. Occurred in Day Schedule=OFFICE BLDG_EQUIP_ENDUSEDATA DEFAULT 1
   ** Warning ** ProcessScheduleInput: DecodeHHMMField, Invalid "until" field value is not a multiple of the minutes for each timestep: 20:15
   **   ~~~   ** Other errors may result. Occurred in Day Schedule=OFFICE BLDG_EQUIP_ENDUSEDATA DEFAULT 1
   ** Warning ** ProcessScheduleInput: DecodeHHMMField, Invalid "until" field value is not a multiple of the minutes for each timestep: 20:30
   **   ~~~   ** Other errors may result. Occurred in Day Schedule=OFFICE BLDG_EQUIP_ENDUSEDATA DEFAULT 1
   ** Warning ** ProcessScheduleInput: DecodeHHMMField, Invalid "until" field value is not a multiple of the minutes for each timestep: 20:45
   **   ~~~   ** Other errors may result. Occurred in Day Schedule=OFFICE BLDG_EQUIP_ENDUSEDATA DEFAULT 1
   ** Warning ** ProcessScheduleInput: DecodeHHMMField, Invalid "until" field value is not a multiple of the minutes for each timestep: 21:15
   **   ~~~   ** Other errors may result. Occurred in Day Schedule=OFFICE BLDG_EQUIP_ENDUSEDATA DEFAULT 1
   ** Warning ** ProcessScheduleInput: DecodeHHMMField, Invalid "until" field value is not a multiple of the minutes for each timestep: 21:30
   **   ~~~   ** Other errors may result. Occurred in Day Schedule=OFFICE BLDG_EQUIP_ENDUSEDATA DEFAULT 1
   ** Warning ** ProcessScheduleInput: DecodeHHMMField, Invalid "until" field value is not a multiple of the minutes for each timestep: 21:45
   **   ~~~   ** Other errors may result. Occurred in Day Schedule=OFFICE BLDG_EQUIP_ENDUSEDATA DEFAULT 1
   ** Warning ** ProcessScheduleInput: DecodeHHMMField, Invalid "until" field value is not a multiple of the minutes for each timestep: 22:15
   **   ~~~   ** Other errors may result. Occurred in Day Schedule=OFFICE BLDG_EQUIP_ENDUSEDATA DEFAULT 1
   ** Warning ** ProcessScheduleInput: DecodeHHMMField, Invalid "until" field value is not a multiple of the minutes for each timestep: 22:30
   **   ~~~   ** Other errors may result. Occurred in Day Schedule=OFFICE BLDG_EQUIP_ENDUSEDATA DEFAULT 1
   ** Warning ** ProcessScheduleInput: DecodeHHMMField, Invalid "until" field value is not a multiple of the minutes for each timestep: 22:45
   **   ~~~   ** Other errors may result. Occurred in Day Schedule=OFFICE BLDG_EQUIP_ENDUSEDATA DEFAULT 1
   ** Warning ** ProcessScheduleInput: DecodeHHMMField, Invalid "until" field value is not a multiple of the minutes for each timestep: 23:15
   **   ~~~   ** Other errors may result. Occurred in Day Schedule=OFFICE BLDG_EQUIP_ENDUSEDATA DEFAULT 1
   ** Warning ** ProcessScheduleInput: DecodeHHMMField, Invalid "until" field value is not a multiple of the minutes for each timestep: 23:30
   **   ~~~   ** Other errors may result. Occurred in Day Schedule=OFFICE BLDG_EQUIP_ENDUSEDATA DEFAULT 1
   ** Warning ** ProcessScheduleInput: DecodeHHMMField, Invalid "until" field value is not a multiple of the minutes for each timestep: 23:45
   **   ~~~   ** Other errors may result. Occurred in Day Schedule=OFFICE BLDG_EQUIP_ENDUSEDATA DEFAULT 1
   ** Warning ** ProcessScheduleInput: DecodeHHMMField, Invalid "until" field value is not a multiple of the minutes for each timestep: 05:45
   **   ~~~   ** Other errors may result. Occurred in Day Schedule=9 ZONE PVAV WITH PFP BOXES AND REHEAT OCC SCH DEFAULT
   ** Warning ** ProcessScheduleInput: DecodeHHMMField, Invalid "until" field value is not a multiple of the minutes for each timestep: 16:15
   **   ~~~   ** Other errors may result. Occurred in Day Schedule=9 ZONE PVAV WITH PFP BOXES AND REHEAT OCC SCH DEFAULT
   ** Warning ** ProcessScheduleInput: DecodeHHMMField, Invalid "until" field value is not a multiple of the minutes for each timestep: 06:45
   **   ~~~   ** Other errors may result. Occurred in Day Schedule=9 ZONE PVAV WITH PFP BOXES AND REHEAT OCC SCH SATURDAY
   ** Warning ** ProcessScheduleInput: DecodeHHMMField, Invalid "until" field value is not a multiple of the minutes for each timestep: 14:52
   **   ~~~   ** Other errors may result. Occurred in Day Schedule=9 ZONE PVAV WITH PFP BOXES AND REHEAT OCC SCH SATURDAY
   ** Warning ** ProcessScheduleInput: DecodeHHMMField, Invalid "until" field value is not a multiple of the minutes for each timestep: 05:45
   **   ~~~   ** Other errors may result. Occurred in Day Schedule=9 ZONE PVAV WITH PFP BOXES AND REHEAT OCC SCH DEFAULT 2
   ** Warning ** ProcessScheduleInput: DecodeHHMMField, Invalid "until" field value is not a multiple of the minutes for each timestep: 16:15
   **   ~~~   ** Other errors may result. Occurred in Day Schedule=9 ZONE PVAV WITH PFP BOXES AND REHEAT OCC SCH DEFAULT 2
   ** Warning ** ProcessScheduleInput: DecodeHHMMField, Invalid "until" field value is not a multiple of the minutes for each timestep: 06:45
   **   ~~~   ** Other errors may result. Occurred in Day Schedule=9 ZONE PVAV WITH PFP BOXES AND REHEAT OCC SCH SATURDAY 2
   ** Warning ** ProcessScheduleInput: DecodeHHMMField, Invalid "until" field value is not a multiple of the minutes for each timestep: 14:52
   **   ~~~   ** Other errors may result. Occurred in Day Schedule=9 ZONE PVAV WITH PFP BOXES AND REHEAT OCC SCH SATURDAY 2
   ** Warning ** ProcessScheduleInput: DecodeHHMMField, Invalid "until" field value is not a multiple of the minutes for each timestep: 05:45
   **   ~~~   ** Other errors may result. Occurred in Day Schedule=9 ZONE PVAV WITH PFP BOXES AND REHEAT 1 OCC SCH DEFAULT
   ** Warning ** ProcessScheduleInput: DecodeHHMMField, Invalid "until" field value is not a multiple of the minutes for each timestep: 16:15
   **   ~~~   ** Other errors may result. Occurred in Day Schedule=9 ZONE PVAV WITH PFP BOXES AND REHEAT 1 OCC SCH DEFAULT
   ** Warning ** ProcessScheduleInput: DecodeHHMMField, Invalid "until" field value is not a multiple of the minutes for each timestep: 06:45
   **   ~~~   ** Other errors may result. Occurred in Day Schedule=9 ZONE PVAV WITH PFP BOXES AND REHEAT 1 OCC SCH SATURDAY
   ** Warning ** ProcessScheduleInput: DecodeHHMMField, Invalid "until" field value is not a multiple of the minutes for each timestep: 14:52
   **   ~~~   ** Other errors may result. Occurred in Day Schedule=9 ZONE PVAV WITH PFP BOXES AND REHEAT 1 OCC SCH SATURDAY
   ** Warning ** ProcessScheduleInput: DecodeHHMMField, Invalid "until" field value is not a multiple of the minutes for each timestep: 05:45
   **   ~~~   ** Other errors may result. Occurred in Day Schedule=9 ZONE PVAV WITH PFP BOXES AND REHEAT 1 OCC SCH DEFAULT 2
   ** Warning ** ProcessScheduleInput: DecodeHHMMField, Invalid "until" field value is not a multiple of the minutes for each timestep: 16:15
   **   ~~~   ** Other errors may result. Occurred in Day Schedule=9 ZONE PVAV WITH PFP BOXES AND REHEAT 1 OCC SCH DEFAULT 2
   ** Warning ** ProcessScheduleInput: DecodeHHMMField, Invalid "until" field value is not a multiple of the minutes for each timestep: 06:45
   **   ~~~   ** Other errors may result. Occurred in Day Schedule=9 ZONE PVAV WITH PFP BOXES AND REHEAT 1 OCC SCH SATURDAY 2
   ** Warning ** ProcessScheduleInput: DecodeHHMMField, Invalid "until" field value is not a multiple of the minutes for each timestep: 14:52
   **   ~~~   ** Other errors may result. Occurred in Day Schedule=9 ZONE PVAV WITH PFP BOXES AND REHEAT 1 OCC SCH SATURDAY 2
   ** Warning ** ProcessScheduleInput: DecodeHHMMField, Invalid "until" field value is not a multiple of the minutes for each timestep: 05:45
   **   ~~~   ** Other errors may result. Occurred in Day Schedule=9 ZONE PVAV WITH PFP BOXES AND REHEAT 2 OCC SCH DEFAULT
   ** Warning ** ProcessScheduleInput: DecodeHHMMField, Invalid "until" field value is not a multiple of the minutes for each timestep: 16:15
   **   ~~~   ** Other errors may result. Occurred in Day Schedule=9 ZONE PVAV WITH PFP BOXES AND REHEAT 2 OCC SCH DEFAULT
   ** Warning ** ProcessScheduleInput: DecodeHHMMField, Invalid "until" field value is not a multiple of the minutes for each timestep: 06:45
   **   ~~~   ** Other errors may result. Occurred in Day Schedule=9 ZONE PVAV WITH PFP BOXES AND REHEAT 2 OCC SCH SATURDAY
   ** Warning ** ProcessScheduleInput: DecodeHHMMField, Invalid "until" field value is not a multiple of the minutes for each timestep: 14:52
   **   ~~~   ** Other errors may result. Occurred in Day Schedule=9 ZONE PVAV WITH PFP BOXES AND REHEAT 2 OCC SCH SATURDAY
   ** Warning ** ProcessScheduleInput: DecodeHHMMField, Invalid "until" field value is not a multiple of the minutes for each timestep: 05:45
   **   ~~~   ** Other errors may result. Occurred in Day Schedule=9 ZONE PVAV WITH PFP BOXES AND REHEAT 2 OCC SCH DEFAULT 2
   ** Warning ** ProcessScheduleInput: DecodeHHMMField, Invalid "until" field value is not a multiple of the minutes for each timestep: 16:15
   **   ~~~   ** Other errors may result. Occurred in Day Schedule=9 ZONE PVAV WITH PFP BOXES AND REHEAT 2 OCC SCH DEFAULT 2
   ** Warning ** ProcessScheduleInput: DecodeHHMMField, Invalid "until" field value is not a multiple of the minutes for each timestep: 06:45
   **   ~~~   ** Other errors may result. Occurred in Day Schedule=9 ZONE PVAV WITH PFP BOXES AND REHEAT 2 OCC SCH SATURDAY 2
   ** Warning ** ProcessScheduleInput: DecodeHHMMField, Invalid "until" field value is not a multiple of the minutes for each timestep: 14:52
   **   ~~~   ** Other errors may result. Occurred in Day Schedule=9 ZONE PVAV WITH PFP BOXES AND REHEAT 2 OCC SCH SATURDAY 2
   ** Warning ** ProcessScheduleInput: DecodeHHMMField, Invalid "until" field value is not a multiple of the minutes for each timestep: 05:45
   **   ~~~   ** Other errors may result. Occurred in Day Schedule=9 ZONE PVAV WITH PFP BOXES AND REHEAT 3 OCC SCH DEFAULT
   ** Warning ** ProcessScheduleInput: DecodeHHMMField, Invalid "until" field value is not a multiple of the minutes for each timestep: 16:15
   **   ~~~   ** Other errors may result. Occurred in Day Schedule=9 ZONE PVAV WITH PFP BOXES AND REHEAT 3 OCC SCH DEFAULT
   ** Warning ** ProcessScheduleInput: DecodeHHMMField, Invalid "until" field value is not a multiple of the minutes for each timestep: 06:45
   **   ~~~   ** Other errors may result. Occurred in Day Schedule=9 ZONE PVAV WITH PFP BOXES AND REHEAT 3 OCC SCH SATURDAY
   ** Warning ** ProcessScheduleInput: DecodeHHMMField, Invalid "until" field value is not a multiple of the minutes for each timestep: 14:52
   **   ~~~   ** Other errors may result. Occurred in Day Schedule=9 ZONE PVAV WITH PFP BOXES AND REHEAT 3 OCC SCH SATURDAY
   ** Warning ** ProcessScheduleInput: DecodeHHMMField, Invalid "until" field value is not a multiple of the minutes for each timestep: 05:45
   **   ~~~   ** Other errors may result. Occurred in Day Schedule=9 ZONE PVAV WITH PFP BOXES AND REHEAT 3 OCC SCH DEFAULT 2
   ** Warning ** ProcessScheduleInput: DecodeHHMMField, Invalid "until" field value is not a multiple of the minutes for each timestep: 16:15
   **   ~~~   ** Other errors may result. Occurred in Day Schedule=9 ZONE PVAV WITH PFP BOXES AND REHEAT 3 OCC SCH DEFAULT 2
   ** Warning ** ProcessScheduleInput: DecodeHHMMField, Invalid "until" field value is not a multiple of the minutes for each timestep: 06:45
   **   ~~~   ** Other errors may result. Occurred in Day Schedule=9 ZONE PVAV WITH PFP BOXES AND REHEAT 3 OCC SCH SATURDAY 2
   ** Warning ** ProcessScheduleInput: DecodeHHMMField, Invalid "until" field value is not a multiple of the minutes for each timestep: 14:52
   **   ~~~   ** Other errors may result. Occurred in Day Schedule=9 ZONE PVAV WITH PFP BOXES AND REHEAT 3 OCC SCH SATURDAY 2
   ** Warning ** ProcessScheduleInput: DecodeHHMMField, Invalid "until" field value is not a multiple of the minutes for each timestep: 05:45
   **   ~~~   ** Other errors may result. Occurred in Day Schedule=9 ZONE PVAV WITH PFP BOXES AND REHEAT 4 OCC SCH DEFAULT
   ** Warning ** ProcessScheduleInput: DecodeHHMMField, Invalid "until" field value is not a multiple of the minutes for each timestep: 16:15
   **   ~~~   ** Other errors may result. Occurred in Day Schedule=9 ZONE PVAV WITH PFP BOXES AND REHEAT 4 OCC SCH DEFAULT
   ** Warning ** ProcessScheduleInput: DecodeHHMMField, Invalid "until" field value is not a multiple of the minutes for each timestep: 06:45
   **   ~~~   ** Other errors may result. Occurred in Day Schedule=9 ZONE PVAV WITH PFP BOXES AND REHEAT 4 OCC SCH SATURDAY
   ** Warning ** ProcessScheduleInput: DecodeHHMMField, Invalid "until" field value is not a multiple of the minutes for each timestep: 14:52
   **   ~~~   ** Other errors may result. Occurred in Day Schedule=9 ZONE PVAV WITH PFP BOXES AND REHEAT 4 OCC SCH SATURDAY
   ** Warning ** ProcessScheduleInput: DecodeHHMMField, Invalid "until" field value is not a multiple of the minutes for each timestep: 05:45
   **   ~~~   ** Other errors may result. Occurred in Day Schedule=9 ZONE PVAV WITH PFP BOXES AND REHEAT 4 OCC SCH DEFAULT 2
   ** Warning ** ProcessScheduleInput: DecodeHHMMField, Invalid "until" field value is not a multiple of the minutes for each timestep: 16:15
   **   ~~~   ** Other errors may result. Occurred in Day Schedule=9 ZONE PVAV WITH PFP BOXES AND REHEAT 4 OCC SCH DEFAULT 2
   ** Warning ** ProcessScheduleInput: DecodeHHMMField, Invalid "until" field value is not a multiple of the minutes for each timestep: 06:45
   **   ~~~   ** Other errors may result. Occurred in Day Schedule=9 ZONE PVAV WITH PFP BOXES AND REHEAT 4 OCC SCH SATURDAY 2
   ** Warning ** ProcessScheduleInput: DecodeHHMMField, Invalid "until" field value is not a multiple of the minutes for each timestep: 14:52
   **   ~~~   ** Other errors may result. Occurred in Day Schedule=9 ZONE PVAV WITH PFP BOXES AND REHEAT 4 OCC SCH SATURDAY 2
   ** Warning ** ProcessScheduleInput: DecodeHHMMField, Invalid "until" field value is not a multiple of the minutes for each timestep: 05:45
   **   ~~~   ** Other errors may result. Occurred in Day Schedule=9 ZONE PVAV WITH PFP BOXES AND REHEAT 5 OCC SCH DEFAULT
   ** Warning ** ProcessScheduleInput: DecodeHHMMField, Invalid "until" field value is not a multiple of the minutes for each timestep: 16:15
   **   ~~~   ** Other errors may result. Occurred in Day Schedule=9 ZONE PVAV WITH PFP BOXES AND REHEAT 5 OCC SCH DEFAULT
   ** Warning ** ProcessScheduleInput: DecodeHHMMField, Invalid "until" field value is not a multiple of the minutes for each timestep: 06:45
   **   ~~~   ** Other errors may result. Occurred in Day Schedule=9 ZONE PVAV WITH PFP BOXES AND REHEAT 5 OCC SCH SATURDAY
   ** Warning ** ProcessScheduleInput: DecodeHHMMField, Invalid "until" field value is not a multiple of the minutes for each timestep: 14:52
   **   ~~~   ** Other errors may result. Occurred in Day Schedule=9 ZONE PVAV WITH PFP BOXES AND REHEAT 5 OCC SCH SATURDAY
   ** Warning ** ProcessScheduleInput: DecodeHHMMField, Invalid "until" field value is not a multiple of the minutes for each timestep: 05:45
   **   ~~~   ** Other errors may result. Occurred in Day Schedule=9 ZONE PVAV WITH PFP BOXES AND REHEAT 5 OCC SCH DEFAULT 2
   ** Warning ** ProcessScheduleInput: DecodeHHMMField, Invalid "until" field value is not a multiple of the minutes for each timestep: 16:15
   **   ~~~   ** Other errors may result. Occurred in Day Schedule=9 ZONE PVAV WITH PFP BOXES AND REHEAT 5 OCC SCH DEFAULT 2
   ** Warning ** ProcessScheduleInput: DecodeHHMMField, Invalid "until" field value is not a multiple of the minutes for each timestep: 06:45
   **   ~~~   ** Other errors may result. Occurred in Day Schedule=9 ZONE PVAV WITH PFP BOXES AND REHEAT 5 OCC SCH SATURDAY 2
   ** Warning ** ProcessScheduleInput: DecodeHHMMField, Invalid "until" field value is not a multiple of the minutes for each timestep: 14:52
   **   ~~~   ** Other errors may result. Occurred in Day Schedule=9 ZONE PVAV WITH PFP BOXES AND REHEAT 5 OCC SCH SATURDAY 2
   ** Warning ** ProcessScheduleInput: DecodeHHMMField, Invalid "until" field value is not a multiple of the minutes for each timestep: 05:45
   **   ~~~   ** Other errors may result. Occurred in Day Schedule=9 ZONE PVAV WITH PFP BOXES AND REHEAT 6 OCC SCH DEFAULT
   ** Warning ** ProcessScheduleInput: DecodeHHMMField, Invalid "until" field value is not a multiple of the minutes for each timestep: 16:15
   **   ~~~   ** Other errors may result. Occurred in Day Schedule=9 ZONE PVAV WITH PFP BOXES AND REHEAT 6 OCC SCH DEFAULT
   ** Warning ** ProcessScheduleInput: DecodeHHMMField, Invalid "until" field value is not a multiple of the minutes for each timestep: 06:45
   **   ~~~   ** Other errors may result. Occurred in Day Schedule=9 ZONE PVAV WITH PFP BOXES AND REHEAT 6 OCC SCH SATURDAY
   ** Warning ** ProcessScheduleInput: DecodeHHMMField, Invalid "until" field value is not a multiple of the minutes for each timestep: 14:52
   **   ~~~   ** Other errors may result. Occurred in Day Schedule=9 ZONE PVAV WITH PFP BOXES AND REHEAT 6 OCC SCH SATURDAY
   ** Warning ** ProcessScheduleInput: DecodeHHMMField, Invalid "until" field value is not a multiple of the minutes for each timestep: 05:45
   **   ~~~   ** Other errors may result. Occurred in Day Schedule=9 ZONE PVAV WITH PFP BOXES AND REHEAT 6 OCC SCH DEFAULT 2
   ** Warning ** ProcessScheduleInput: DecodeHHMMField, Invalid "until" field value is not a multiple of the minutes for each timestep: 16:15
   **   ~~~   ** Other errors may result. Occurred in Day Schedule=9 ZONE PVAV WITH PFP BOXES AND REHEAT 6 OCC SCH DEFAULT 2
   ** Warning ** ProcessScheduleInput: DecodeHHMMField, Invalid "until" field value is not a multiple of the minutes for each timestep: 06:45
   **   ~~~   ** Other errors may result. Occurred in Day Schedule=9 ZONE PVAV WITH PFP BOXES AND REHEAT 6 OCC SCH SATURDAY 2
   ** Warning ** ProcessScheduleInput: DecodeHHMMField, Invalid "until" field value is not a multiple of the minutes for each timestep: 14:52
   **   ~~~   ** Other errors may result. Occurred in Day Schedule=9 ZONE PVAV WITH PFP BOXES AND REHEAT 6 OCC SCH SATURDAY 2
   ** Warning ** ProcessScheduleInput: DecodeHHMMField, Invalid "until" field value is not a multiple of the minutes for each timestep: 05:45
   **   ~~~   ** Other errors may result. Occurred in Day Schedule=9 ZONE PVAV WITH PFP BOXES AND REHEAT 7 OCC SCH DEFAULT
   ** Warning ** ProcessScheduleInput: DecodeHHMMField, Invalid "until" field value is not a multiple of the minutes for each timestep: 16:15
   **   ~~~   ** Other errors may result. Occurred in Day Schedule=9 ZONE PVAV WITH PFP BOXES AND REHEAT 7 OCC SCH DEFAULT
   ** Warning ** ProcessScheduleInput: DecodeHHMMField, Invalid "until" field value is not a multiple of the minutes for each timestep: 06:45
   **   ~~~   ** Other errors may result. Occurred in Day Schedule=9 ZONE PVAV WITH PFP BOXES AND REHEAT 7 OCC SCH SATURDAY
   ** Warning ** ProcessScheduleInput: DecodeHHMMField, Invalid "until" field value is not a multiple of the minutes for each timestep: 14:52
   **   ~~~   ** Other errors may result. Occurred in Day Schedule=9 ZONE PVAV WITH PFP BOXES AND REHEAT 7 OCC SCH SATURDAY
   ** Warning ** ProcessScheduleInput: DecodeHHMMField, Invalid "until" field value is not a multiple of the minutes for each timestep: 05:45
   **   ~~~   ** Other errors may result. Occurred in Day Schedule=9 ZONE PVAV WITH PFP BOXES AND REHEAT 7 OCC SCH DEFAULT 2
   ** Warning ** ProcessScheduleInput: DecodeHHMMField, Invalid "until" field value is not a multiple of the minutes for each timestep: 16:15
   **   ~~~   ** Other errors may result. Occurred in Day Schedule=9 ZONE PVAV WITH PFP BOXES AND REHEAT 7 OCC SCH DEFAULT 2
   ** Warning ** ProcessScheduleInput: DecodeHHMMField, Invalid "until" field value is not a multiple of the minutes for each timestep: 06:45
   **   ~~~   ** Other errors may result. Occurred in Day Schedule=9 ZONE PVAV WITH PFP BOXES AND REHEAT 7 OCC SCH SATURDAY 2
   ** Warning ** ProcessScheduleInput: DecodeHHMMField, Invalid "until" field value is not a multiple of the minutes for each timestep: 14:52
   **   ~~~   ** Other errors may result. Occurred in Day Schedule=9 ZONE PVAV WITH PFP BOXES AND REHEAT 7 OCC SCH SATURDAY 2
   ** Warning ** ProcessScheduleInput: DecodeHHMMField, Invalid "until" field value is not a multiple of the minutes for each timestep: 05:45
   **   ~~~   ** Other errors may result. Occurred in Day Schedule=9 ZONE PVAV WITH PFP BOXES AND REHEAT 8 OCC SCH DEFAULT
   ** Warning ** ProcessScheduleInput: DecodeHHMMField, Invalid "until" field value is not a multiple of the minutes for each timestep: 16:15
   **   ~~~   ** Other errors may result. Occurred in Day Schedule=9 ZONE PVAV WITH PFP BOXES AND REHEAT 8 OCC SCH DEFAULT
   ** Warning ** ProcessScheduleInput: DecodeHHMMField, Invalid "until" field value is not a multiple of the minutes for each timestep: 06:45
   **   ~~~   ** Other errors may result. Occurred in Day Schedule=9 ZONE PVAV WITH PFP BOXES AND REHEAT 8 OCC SCH SATURDAY
   ** Warning ** ProcessScheduleInput: DecodeHHMMField, Invalid "until" field value is not a multiple of the minutes for each timestep: 14:52
   **   ~~~   ** Other errors may result. Occurred in Day Schedule=9 ZONE PVAV WITH PFP BOXES AND REHEAT 8 OCC SCH SATURDAY
   ** Warning ** ProcessScheduleInput: DecodeHHMMField, Invalid "until" field value is not a multiple of the minutes for each timestep: 05:45
   **   ~~~   ** Other errors may result. Occurred in Day Schedule=9 ZONE PVAV WITH PFP BOXES AND REHEAT 8 OCC SCH DEFAULT 2
   ** Warning ** ProcessScheduleInput: DecodeHHMMField, Invalid "until" field value is not a multiple of the minutes for each timestep: 16:15
   **   ~~~   ** Other errors may result. Occurred in Day Schedule=9 ZONE PVAV WITH PFP BOXES AND REHEAT 8 OCC SCH DEFAULT 2
   ** Warning ** ProcessScheduleInput: DecodeHHMMField, Invalid "until" field value is not a multiple of the minutes for each timestep: 06:45
   **   ~~~   ** Other errors may result. Occurred in Day Schedule=9 ZONE PVAV WITH PFP BOXES AND REHEAT 8 OCC SCH SATURDAY 2
   ** Warning ** ProcessScheduleInput: DecodeHHMMField, Invalid "until" field value is not a multiple of the minutes for each timestep: 14:52
   **   ~~~   ** Other errors may result. Occurred in Day Schedule=9 ZONE PVAV WITH PFP BOXES AND REHEAT 8 OCC SCH SATURDAY 2
   ** Warning ** ProcessScheduleInput: DecodeHHMMField, Invalid "until" field value is not a multiple of the minutes for each timestep: 05:45
   **   ~~~   ** Other errors may result. Occurred in Day Schedule=9 ZONE PVAV WITH PFP BOXES AND REHEAT 9 OCC SCH DEFAULT
   ** Warning ** ProcessScheduleInput: DecodeHHMMField, Invalid "until" field value is not a multiple of the minutes for each timestep: 16:15
   **   ~~~   ** Other errors may result. Occurred in Day Schedule=9 ZONE PVAV WITH PFP BOXES AND REHEAT 9 OCC SCH DEFAULT
   ** Warning ** ProcessScheduleInput: DecodeHHMMField, Invalid "until" field value is not a multiple of the minutes for each timestep: 06:45
   **   ~~~   ** Other errors may result. Occurred in Day Schedule=9 ZONE PVAV WITH PFP BOXES AND REHEAT 9 OCC SCH SATURDAY
   ** Warning ** ProcessScheduleInput: DecodeHHMMField, Invalid "until" field value is not a multiple of the minutes for each timestep: 14:52
   **   ~~~   ** Other errors may result. Occurred in Day Schedule=9 ZONE PVAV WITH PFP BOXES AND REHEAT 9 OCC SCH SATURDAY
   ** Warning ** ProcessScheduleInput: DecodeHHMMField, Invalid "until" field value is not a multiple of the minutes for each timestep: 05:45
   **   ~~~   ** Other errors may result. Occurred in Day Schedule=9 ZONE PVAV WITH PFP BOXES AND REHEAT 9 OCC SCH DEFAULT 2
   ** Warning ** ProcessScheduleInput: DecodeHHMMField, Invalid "until" field value is not a multiple of the minutes for each timestep: 16:15
   **   ~~~   ** Other errors may result. Occurred in Day Schedule=9 ZONE PVAV WITH PFP BOXES AND REHEAT 9 OCC SCH DEFAULT 2
   ** Warning ** ProcessScheduleInput: DecodeHHMMField, Invalid "until" field value is not a multiple of the minutes for each timestep: 06:45
   **   ~~~   ** Other errors may result. Occurred in Day Schedule=9 ZONE PVAV WITH PFP BOXES AND REHEAT 9 OCC SCH SATURDAY 2
   ** Warning ** ProcessScheduleInput: DecodeHHMMField, Invalid "until" field value is not a multiple of the minutes for each timestep: 14:52
   **   ~~~   ** Other errors may result. Occurred in Day Schedule=9 ZONE PVAV WITH PFP BOXES AND REHEAT 9 OCC SCH SATURDAY 2
   ** Warning ** ProcessScheduleInput: DecodeHHMMField, Invalid "until" field value is not a multiple of the minutes for each timestep: 05:45
   **   ~~~   ** Other errors may result. Occurred in Day Schedule=9 ZONE PVAV WITH PFP BOXES AND REHEAT 10 OCC SCH DEFAULT
   ** Warning ** ProcessScheduleInput: DecodeHHMMField, Invalid "until" field value is not a multiple of the minutes for each timestep: 16:15
   **   ~~~   ** Other errors may result. Occurred in Day Schedule=9 ZONE PVAV WITH PFP BOXES AND REHEAT 10 OCC SCH DEFAULT
   ** Warning ** ProcessScheduleInput: DecodeHHMMField, Invalid "until" field value is not a multiple of the minutes for each timestep: 06:45
   **   ~~~   ** Other errors may result. Occurred in Day Schedule=9 ZONE PVAV WITH PFP BOXES AND REHEAT 10 OCC SCH SATURDAY
   ** Warning ** ProcessScheduleInput: DecodeHHMMField, Invalid "until" field value is not a multiple of the minutes for each timestep: 14:52
   **   ~~~   ** Other errors may result. Occurred in Day Schedule=9 ZONE PVAV WITH PFP BOXES AND REHEAT 10 OCC SCH SATURDAY
   ** Warning ** ProcessScheduleInput: DecodeHHMMField, Invalid "until" field value is not a multiple of the minutes for each timestep: 05:45
   **   ~~~   ** Other errors may result. Occurred in Day Schedule=9 ZONE PVAV WITH PFP BOXES AND REHEAT 10 OCC SCH DEFAULT 2
   ** Warning ** ProcessScheduleInput: DecodeHHMMField, Invalid "until" field value is not a multiple of the minutes for each timestep: 16:15
   **   ~~~   ** Other errors may result. Occurred in Day Schedule=9 ZONE PVAV WITH PFP BOXES AND REHEAT 10 OCC SCH DEFAULT 2
   ** Warning ** ProcessScheduleInput: DecodeHHMMField, Invalid "until" field value is not a multiple of the minutes for each timestep: 06:45
   **   ~~~   ** Other errors may result. Occurred in Day Schedule=9 ZONE PVAV WITH PFP BOXES AND REHEAT 10 OCC SCH SATURDAY 2
   ** Warning ** ProcessScheduleInput: DecodeHHMMField, Invalid "until" field value is not a multiple of the minutes for each timestep: 14:52
   **   ~~~   ** Other errors may result. Occurred in Day Schedule=9 ZONE PVAV WITH PFP BOXES AND REHEAT 10 OCC SCH SATURDAY 2
   ** Warning ** ProcessScheduleInput: DecodeHHMMField, Invalid "until" field value is not a multiple of the minutes for each timestep: 05:45
   **   ~~~   ** Other errors may result. Occurred in Day Schedule=9 ZONE PVAV WITH PFP BOXES AND REHEAT 11 OCC SCH DEFAULT
   ** Warning ** ProcessScheduleInput: DecodeHHMMField, Invalid "until" field value is not a multiple of the minutes for each timestep: 16:15
   **   ~~~   ** Other errors may result. Occurred in Day Schedule=9 ZONE PVAV WITH PFP BOXES AND REHEAT 11 OCC SCH DEFAULT
   ** Warning ** ProcessScheduleInput: DecodeHHMMField, Invalid "until" field value is not a multiple of the minutes for each timestep: 06:45
   **   ~~~   ** Other errors may result. Occurred in Day Schedule=9 ZONE PVAV WITH PFP BOXES AND REHEAT 11 OCC SCH SATURDAY
   ** Warning ** ProcessScheduleInput: DecodeHHMMField, Invalid "until" field value is not a multiple of the minutes for each timestep: 14:52
   **   ~~~   ** Other errors may result. Occurred in Day Schedule=9 ZONE PVAV WITH PFP BOXES AND REHEAT 11 OCC SCH SATURDAY
   ** Warning ** ProcessScheduleInput: DecodeHHMMField, Invalid "until" field value is not a multiple of the minutes for each timestep: 05:45
   **   ~~~   ** Other errors may result. Occurred in Day Schedule=9 ZONE PVAV WITH PFP BOXES AND REHEAT 11 OCC SCH DEFAULT 2
   ** Warning ** ProcessScheduleInput: DecodeHHMMField, Invalid "until" field value is not a multiple of the minutes for each timestep: 16:15
   **   ~~~   ** Other errors may result. Occurred in Day Schedule=9 ZONE PVAV WITH PFP BOXES AND REHEAT 11 OCC SCH DEFAULT 2
   ** Warning ** ProcessScheduleInput: DecodeHHMMField, Invalid "until" field value is not a multiple of the minutes for each timestep: 06:45
   **   ~~~   ** Other errors may result. Occurred in Day Schedule=9 ZONE PVAV WITH PFP BOXES AND REHEAT 11 OCC SCH SATURDAY 2
   ** Warning ** ProcessScheduleInput: DecodeHHMMField, Invalid "until" field value is not a multiple of the minutes for each timestep: 14:52
   **   ~~~   ** Other errors may result. Occurred in Day Schedule=9 ZONE PVAV WITH PFP BOXES AND REHEAT 11 OCC SCH SATURDAY 2
   ** Warning ** ProcessScheduleInput: DecodeHHMMField, Invalid "until" field value is not a multiple of the minutes for each timestep: 05:45
   **   ~~~   ** Other errors may result. Occurred in Day Schedule=9 ZONE PVAV WITH PFP BOXES AND REHEAT 12 OCC SCH DEFAULT
   ** Warning ** ProcessScheduleInput: DecodeHHMMField, Invalid "until" field value is not a multiple of the minutes for each timestep: 16:15
   **   ~~~   ** Other errors may result. Occurred in Day Schedule=9 ZONE PVAV WITH PFP BOXES AND REHEAT 12 OCC SCH DEFAULT
   ** Warning ** ProcessScheduleInput: DecodeHHMMField, Invalid "until" field value is not a multiple of the minutes for each timestep: 06:45
   **   ~~~   ** Other errors may result. Occurred in Day Schedule=9 ZONE PVAV WITH PFP BOXES AND REHEAT 12 OCC SCH SATURDAY
   ** Warning ** ProcessScheduleInput: DecodeHHMMField, Invalid "until" field value is not a multiple of the minutes for each timestep: 14:52
   **   ~~~   ** Other errors may result. Occurred in Day Schedule=9 ZONE PVAV WITH PFP BOXES AND REHEAT 12 OCC SCH SATURDAY
   ** Warning ** ProcessScheduleInput: DecodeHHMMField, Invalid "until" field value is not a multiple of the minutes for each timestep: 05:45
   **   ~~~   ** Other errors may result. Occurred in Day Schedule=9 ZONE PVAV WITH PFP BOXES AND REHEAT 12 OCC SCH DEFAULT 2
   ** Warning ** ProcessScheduleInput: DecodeHHMMField, Invalid "until" field value is not a multiple of the minutes for each timestep: 16:15
   **   ~~~   ** Other errors may result. Occurred in Day Schedule=9 ZONE PVAV WITH PFP BOXES AND REHEAT 12 OCC SCH DEFAULT 2
   ** Warning ** ProcessScheduleInput: DecodeHHMMField, Invalid "until" field value is not a multiple of the minutes for each timestep: 06:45
   **   ~~~   ** Other errors may result. Occurred in Day Schedule=9 ZONE PVAV WITH PFP BOXES AND REHEAT 12 OCC SCH SATURDAY 2
   ** Warning ** ProcessScheduleInput: DecodeHHMMField, Invalid "until" field value is not a multiple of the minutes for each timestep: 14:52
   **   ~~~   ** Other errors may result. Occurred in Day Schedule=9 ZONE PVAV WITH PFP BOXES AND REHEAT 12 OCC SCH SATURDAY 2
   ** Warning ** ProcessScheduleInput: DecodeHHMMField, Invalid "until" field value is not a multiple of the minutes for each timestep: 05:45
   **   ~~~   ** Other errors may result. Occurred in Day Schedule=9 ZONE PVAV WITH PFP BOXES AND REHEAT 13 OCC SCH DEFAULT
   ** Warning ** ProcessScheduleInput: DecodeHHMMField, Invalid "until" field value is not a multiple of the minutes for each timestep: 16:15
   **   ~~~   ** Other errors may result. Occurred in Day Schedule=9 ZONE PVAV WITH PFP BOXES AND REHEAT 13 OCC SCH DEFAULT
   ** Warning ** ProcessScheduleInput: DecodeHHMMField, Invalid "until" field value is not a multiple of the minutes for each timestep: 06:45
   **   ~~~   ** Other errors may result. Occurred in Day Schedule=9 ZONE PVAV WITH PFP BOXES AND REHEAT 13 OCC SCH SATURDAY
   ** Warning ** ProcessScheduleInput: DecodeHHMMField, Invalid "until" field value is not a multiple of the minutes for each timestep: 14:52
   **   ~~~   ** Other errors may result. Occurred in Day Schedule=9 ZONE PVAV WITH PFP BOXES AND REHEAT 13 OCC SCH SATURDAY
   ** Warning ** ProcessScheduleInput: DecodeHHMMField, Invalid "until" field value is not a multiple of the minutes for each timestep: 05:45
   **   ~~~   ** Other errors may result. Occurred in Day Schedule=9 ZONE PVAV WITH PFP BOXES AND REHEAT 13 OCC SCH DEFAULT 2
   ** Warning ** ProcessScheduleInput: DecodeHHMMField, Invalid "until" field value is not a multiple of the minutes for each timestep: 16:15
   **   ~~~   ** Other errors may result. Occurred in Day Schedule=9 ZONE PVAV WITH PFP BOXES AND REHEAT 13 OCC SCH DEFAULT 2
   ** Warning ** ProcessScheduleInput: DecodeHHMMField, Invalid "until" field value is not a multiple of the minutes for each timestep: 06:45
   **   ~~~   ** Other errors may result. Occurred in Day Schedule=9 ZONE PVAV WITH PFP BOXES AND REHEAT 13 OCC SCH SATURDAY 2
   ** Warning ** ProcessScheduleInput: DecodeHHMMField, Invalid "until" field value is not a multiple of the minutes for each timestep: 14:52
   **   ~~~   ** Other errors may result. Occurred in Day Schedule=9 ZONE PVAV WITH PFP BOXES AND REHEAT 13 OCC SCH SATURDAY 2
   ** Warning ** ProcessScheduleInput: DecodeHHMMField, Invalid "until" field value is not a multiple of the minutes for each timestep: 05:45
   **   ~~~   ** Other errors may result. Occurred in Day Schedule=9 ZONE PVAV WITH PFP BOXES AND REHEAT 14 OCC SCH DEFAULT
   ** Warning ** ProcessScheduleInput: DecodeHHMMField, Invalid "until" field value is not a multiple of the minutes for each timestep: 16:15
   **   ~~~   ** Other errors may result. Occurred in Day Schedule=9 ZONE PVAV WITH PFP BOXES AND REHEAT 14 OCC SCH DEFAULT
   ** Warning ** ProcessScheduleInput: DecodeHHMMField, Invalid "until" field value is not a multiple of the minutes for each timestep: 06:45
   **   ~~~   ** Other errors may result. Occurred in Day Schedule=9 ZONE PVAV WITH PFP BOXES AND REHEAT 14 OCC SCH SATURDAY
   ** Warning ** ProcessScheduleInput: DecodeHHMMField, Invalid "until" field value is not a multiple of the minutes for each timestep: 14:52
   **   ~~~   ** Other errors may result. Occurred in Day Schedule=9 ZONE PVAV WITH PFP BOXES AND REHEAT 14 OCC SCH SATURDAY
   ** Warning ** ProcessScheduleInput: DecodeHHMMField, Invalid "until" field value is not a multiple of the minutes for each timestep: 05:45
   **   ~~~   ** Other errors may result. Occurred in Day Schedule=9 ZONE PVAV WITH PFP BOXES AND REHEAT 14 OCC SCH DEFAULT 2
   ** Warning ** ProcessScheduleInput: DecodeHHMMField, Invalid "until" field value is not a multiple of the minutes for each timestep: 16:15
   **   ~~~   ** Other errors may result. Occurred in Day Schedule=9 ZONE PVAV WITH PFP BOXES AND REHEAT 14 OCC SCH DEFAULT 2
   ** Warning ** ProcessScheduleInput: DecodeHHMMField, Invalid "until" field value is not a multiple of the minutes for each timestep: 06:45
   **   ~~~   ** Other errors may result. Occurred in Day Schedule=9 ZONE PVAV WITH PFP BOXES AND REHEAT 14 OCC SCH SATURDAY 2
   ** Warning ** ProcessScheduleInput: DecodeHHMMField, Invalid "until" field value is not a multiple of the minutes for each timestep: 14:52
   **   ~~~   ** Other errors may result. Occurred in Day Schedule=9 ZONE PVAV WITH PFP BOXES AND REHEAT 14 OCC SCH SATURDAY 2
   ** Warning ** ProcessScheduleInput: DecodeHHMMField, Invalid "until" field value is not a multiple of the minutes for each timestep: 05:45
   **   ~~~   ** Other errors may result. Occurred in Day Schedule=9 ZONE PVAV WITH PFP BOXES AND REHEAT 15 OCC SCH DEFAULT
   ** Warning ** ProcessScheduleInput: DecodeHHMMField, Invalid "until" field value is not a multiple of the minutes for each timestep: 16:15
   **   ~~~   ** Other errors may result. Occurred in Day Schedule=9 ZONE PVAV WITH PFP BOXES AND REHEAT 15 OCC SCH DEFAULT
   ** Warning ** ProcessScheduleInput: DecodeHHMMField, Invalid "until" field value is not a multiple of the minutes for each timestep: 06:45
   **   ~~~   ** Other errors may result. Occurred in Day Schedule=9 ZONE PVAV WITH PFP BOXES AND REHEAT 15 OCC SCH SATURDAY
   ** Warning ** ProcessScheduleInput: DecodeHHMMField, Invalid "until" field value is not a multiple of the minutes for each timestep: 14:52
   **   ~~~   ** Other errors may result. Occurred in Day Schedule=9 ZONE PVAV WITH PFP BOXES AND REHEAT 15 OCC SCH SATURDAY
   ** Warning ** ProcessScheduleInput: DecodeHHMMField, Invalid "until" field value is not a multiple of the minutes for each timestep: 05:45
   **   ~~~   ** Other errors may result. Occurred in Day Schedule=9 ZONE PVAV WITH PFP BOXES AND REHEAT 15 OCC SCH DEFAULT 2
   ** Warning ** ProcessScheduleInput: DecodeHHMMField, Invalid "until" field value is not a multiple of the minutes for each timestep: 16:15
   **   ~~~   ** Other errors may result. Occurred in Day Schedule=9 ZONE PVAV WITH PFP BOXES AND REHEAT 15 OCC SCH DEFAULT 2
   ** Warning ** ProcessScheduleInput: DecodeHHMMField, Invalid "until" field value is not a multiple of the minutes for each timestep: 06:45
   **   ~~~   ** Other errors may result. Occurred in Day Schedule=9 ZONE PVAV WITH PFP BOXES AND REHEAT 15 OCC SCH SATURDAY 2
   ** Warning ** ProcessScheduleInput: DecodeHHMMField, Invalid "until" field value is not a multiple of the minutes for each timestep: 14:52
   **   ~~~   ** Other errors may result. Occurred in Day Schedule=9 ZONE PVAV WITH PFP BOXES AND REHEAT 15 OCC SCH SATURDAY 2
   ** Warning ** ProcessScheduleInput: DecodeHHMMField, Invalid "until" field value is not a multiple of the minutes for each timestep: 05:45
   **   ~~~   ** Other errors may result. Occurred in Day Schedule=9 ZONE PVAV WITH PFP BOXES AND REHEAT 16 OCC SCH DEFAULT
   ** Warning ** ProcessScheduleInput: DecodeHHMMField, Invalid "until" field value is not a multiple of the minutes for each timestep: 16:15
   **   ~~~   ** Other errors may result. Occurred in Day Schedule=9 ZONE PVAV WITH PFP BOXES AND REHEAT 16 OCC SCH DEFAULT
   ** Warning ** ProcessScheduleInput: DecodeHHMMField, Invalid "until" field value is not a multiple of the minutes for each timestep: 06:45
   **   ~~~   ** Other errors may result. Occurred in Day Schedule=9 ZONE PVAV WITH PFP BOXES AND REHEAT 16 OCC SCH SATURDAY
   ** Warning ** ProcessScheduleInput: DecodeHHMMField, Invalid "until" field value is not a multiple of the minutes for each timestep: 14:52
   **   ~~~   ** Other errors may result. Occurred in Day Schedule=9 ZONE PVAV WITH PFP BOXES AND REHEAT 16 OCC SCH SATURDAY
   ** Warning ** ProcessScheduleInput: DecodeHHMMField, Invalid "until" field value is not a multiple of the minutes for each timestep: 05:45
   **   ~~~   ** Other errors may result. Occurred in Day Schedule=9 ZONE PVAV WITH PFP BOXES AND REHEAT 16 OCC SCH DEFAULT 2
   ** Warning ** ProcessScheduleInput: DecodeHHMMField, Invalid "until" field value is not a multiple of the minutes for each timestep: 16:15
   **   ~~~   ** Other errors may result. Occurred in Day Schedule=9 ZONE PVAV WITH PFP BOXES AND REHEAT 16 OCC SCH DEFAULT 2
   ** Warning ** ProcessScheduleInput: DecodeHHMMField, Invalid "until" field value is not a multiple of the minutes for each timestep: 06:45
   **   ~~~   ** Other errors may result. Occurred in Day Schedule=9 ZONE PVAV WITH PFP BOXES AND REHEAT 16 OCC SCH SATURDAY 2
   ** Warning ** ProcessScheduleInput: DecodeHHMMField, Invalid "until" field value is not a multiple of the minutes for each timestep: 14:52
   **   ~~~   ** Other errors may result. Occurred in Day Schedule=9 ZONE PVAV WITH PFP BOXES AND REHEAT 16 OCC SCH SATURDAY 2
   ** Warning ** ProcessScheduleInput: DecodeHHMMField, Invalid "until" field value is not a multiple of the minutes for each timestep: 05:45
   **   ~~~   ** Other errors may result. Occurred in Day Schedule=9 ZONE PVAV WITH PFP BOXES AND REHEAT 17 OCC SCH DEFAULT
   ** Warning ** ProcessScheduleInput: DecodeHHMMField, Invalid "until" field value is not a multiple of the minutes for each timestep: 16:15
   **   ~~~   ** Other errors may result. Occurred in Day Schedule=9 ZONE PVAV WITH PFP BOXES AND REHEAT 17 OCC SCH DEFAULT
   ** Warning ** ProcessScheduleInput: DecodeHHMMField, Invalid "until" field value is not a multiple of the minutes for each timestep: 06:45
   **   ~~~   ** Other errors may result. Occurred in Day Schedule=9 ZONE PVAV WITH PFP BOXES AND REHEAT 17 OCC SCH SATURDAY
   ** Warning ** ProcessScheduleInput: DecodeHHMMField, Invalid "until" field value is not a multiple of the minutes for each timestep: 14:52
   **   ~~~   ** Other errors may result. Occurred in Day Schedule=9 ZONE PVAV WITH PFP BOXES AND REHEAT 17 OCC SCH SATURDAY
   ** Warning ** ProcessScheduleInput: DecodeHHMMField, Invalid "until" field value is not a multiple of the minutes for each timestep: 05:45
   **   ~~~   ** Other errors may result. Occurred in Day Schedule=9 ZONE PVAV WITH PFP BOXES AND REHEAT 17 OCC SCH DEFAULT 2
   ** Warning ** ProcessScheduleInput: DecodeHHMMField, Invalid "until" field value is not a multiple of the minutes for each timestep: 16:15
   **   ~~~   ** Other errors may result. Occurred in Day Schedule=9 ZONE PVAV WITH PFP BOXES AND REHEAT 17 OCC SCH DEFAULT 2
   ** Warning ** ProcessScheduleInput: DecodeHHMMField, Invalid "until" field value is not a multiple of the minutes for each timestep: 06:45
   **   ~~~   ** Other errors may result. Occurred in Day Schedule=9 ZONE PVAV WITH PFP BOXES AND REHEAT 17 OCC SCH SATURDAY 2
   ** Warning ** ProcessScheduleInput: DecodeHHMMField, Invalid "until" field value is not a multiple of the minutes for each timestep: 14:52
   **   ~~~   ** Other errors may result. Occurred in Day Schedule=9 ZONE PVAV WITH PFP BOXES AND REHEAT 17 OCC SCH SATURDAY 2
   ** Warning ** ProcessScheduleInput: DecodeHHMMField, Invalid "until" field value is not a multiple of the minutes for each timestep: 05:45
   **   ~~~   ** Other errors may result. Occurred in Day Schedule=9 ZONE PVAV WITH PFP BOXES AND REHEAT 18 OCC SCH DEFAULT
   ** Warning ** ProcessScheduleInput: DecodeHHMMField, Invalid "until" field value is not a multiple of the minutes for each timestep: 16:15
   **   ~~~   ** Other errors may result. Occurred in Day Schedule=9 ZONE PVAV WITH PFP BOXES AND REHEAT 18 OCC SCH DEFAULT
   ** Warning ** ProcessScheduleInput: DecodeHHMMField, Invalid "until" field value is not a multiple of the minutes for each timestep: 06:45
   **   ~~~   ** Other errors may result. Occurred in Day Schedule=9 ZONE PVAV WITH PFP BOXES AND REHEAT 18 OCC SCH SATURDAY
   ** Warning ** ProcessScheduleInput: DecodeHHMMField, Invalid "until" field value is not a multiple of the minutes for each timestep: 14:52
   **   ~~~   ** Other errors may result. Occurred in Day Schedule=9 ZONE PVAV WITH PFP BOXES AND REHEAT 18 OCC SCH SATURDAY
   ** Warning ** ProcessScheduleInput: DecodeHHMMField, Invalid "until" field value is not a multiple of the minutes for each timestep: 05:45
   **   ~~~   ** Other errors may result. Occurred in Day Schedule=9 ZONE PVAV WITH PFP BOXES AND REHEAT 18 OCC SCH DEFAULT 2
   ** Warning ** ProcessScheduleInput: DecodeHHMMField, Invalid "until" field value is not a multiple of the minutes for each timestep: 16:15
   **   ~~~   ** Other errors may result. Occurred in Day Schedule=9 ZONE PVAV WITH PFP BOXES AND REHEAT 18 OCC SCH DEFAULT 2
   ** Warning ** ProcessScheduleInput: DecodeHHMMField, Invalid "until" field value is not a multiple of the minutes for each timestep: 06:45
   **   ~~~   ** Other errors may result. Occurred in Day Schedule=9 ZONE PVAV WITH PFP BOXES AND REHEAT 18 OCC SCH SATURDAY 2
   ** Warning ** ProcessScheduleInput: DecodeHHMMField, Invalid "until" field value is not a multiple of the minutes for each timestep: 14:52
   **   ~~~   ** Other errors may result. Occurred in Day Schedule=9 ZONE PVAV WITH PFP BOXES AND REHEAT 18 OCC SCH SATURDAY 2
   ** Warning ** ProcessScheduleInput: DecodeHHMMField, Invalid "until" field value is not a multiple of the minutes for each timestep: 05:45
   **   ~~~   ** Other errors may result. Occurred in Day Schedule=9 ZONE PVAV WITH PFP BOXES AND REHEAT 19 OCC SCH DEFAULT
   ** Warning ** ProcessScheduleInput: DecodeHHMMField, Invalid "until" field value is not a multiple of the minutes for each timestep: 16:15
[...]
   **   ~~~   ** This may be overriding desired ventilation controls. Check inputs for Minimum Outdoor Air Flow Rate, Minimum Outdoor Air Schedule Name and Controller:MechanicalVentilation
   **   ~~~   ** Minimum OA fraction = 5.6967E-002, Mech Vent OA fraction = 5.6967E-002
   **   ~~~   **  Environment=RUN PERIOD 1, at Simulation time=01/01 05:00 - 06:00
   ** Warning ** CalcOAController: Minimum OA fraction > Mechanical Ventilation Controller request for Controller:OutdoorAir=9 ZONE PVAV WITH PFP BOXES AND REHEAT 4 OA CONTROLLER, Min OA fraction is used.
   **   ~~~   ** This may be overriding desired ventilation controls. Check inputs for Minimum Outdoor Air Flow Rate, Minimum Outdoor Air Schedule Name and Controller:MechanicalVentilation
   **   ~~~   ** Minimum OA fraction = 5.7009E-002, Mech Vent OA fraction = 5.7009E-002
   **   ~~~   **  Environment=RUN PERIOD 1, at Simulation time=01/01 05:00 - 06:00
   ** Warning ** CalcOAController: Minimum OA fraction > Mechanical Ventilation Controller request for Controller:OutdoorAir=9 ZONE PVAV WITH PFP BOXES AND REHEAT 5 OA CONTROLLER, Min OA fraction is used.
   **   ~~~   ** This may be overriding desired ventilation controls. Check inputs for Minimum Outdoor Air Flow Rate, Minimum Outdoor Air Schedule Name and Controller:MechanicalVentilation
   **   ~~~   ** Minimum OA fraction = 5.7050E-002, Mech Vent OA fraction = 5.7050E-002
   **   ~~~   **  Environment=RUN PERIOD 1, at Simulation time=01/01 05:00 - 06:00
   ** Warning ** CalcOAController: Minimum OA fraction > Mechanical Ventilation Controller request for Controller:OutdoorAir=9 ZONE PVAV WITH PFP BOXES AND REHEAT 6 OA CONTROLLER, Min OA fraction is used.
   **   ~~~   ** This may be overriding desired ventilation controls. Check inputs for Minimum Outdoor Air Flow Rate, Minimum Outdoor Air Schedule Name and Controller:MechanicalVentilation
   **   ~~~   ** Minimum OA fraction = 5.7088E-002, Mech Vent OA fraction = 5.7088E-002
   **   ~~~   **  Environment=RUN PERIOD 1, at Simulation time=01/01 05:00 - 06:00
   ** Warning ** CalcOAController: Minimum OA fraction > Mechanical Ventilation Controller request for Controller:OutdoorAir=9 ZONE PVAV WITH PFP BOXES AND REHEAT 7 OA CONTROLLER, Min OA fraction is used.
   **   ~~~   ** This may be overriding desired ventilation controls. Check inputs for Minimum Outdoor Air Flow Rate, Minimum Outdoor Air Schedule Name and Controller:MechanicalVentilation
   **   ~~~   ** Minimum OA fraction = 5.7124E-002, Mech Vent OA fraction = 5.7124E-002
   **   ~~~   **  Environment=RUN PERIOD 1, at Simulation time=01/01 05:00 - 06:00
   ** Warning ** CalcOAController: Minimum OA fraction > Mechanical Ventilation Controller request for Controller:OutdoorAir=9 ZONE PVAV WITH PFP BOXES AND REHEAT 8 OA CONTROLLER, Min OA fraction is used.
   **   ~~~   ** This may be overriding desired ventilation controls. Check inputs for Minimum Outdoor Air Flow Rate, Minimum Outdoor Air Schedule Name and Controller:MechanicalVentilation
   **   ~~~   ** Minimum OA fraction = 5.7159E-002, Mech Vent OA fraction = 5.7159E-002
   **   ~~~   **  Environment=RUN PERIOD 1, at Simulation time=01/01 05:00 - 06:00
   ** Warning ** CalcOAController: Minimum OA fraction > Mechanical Ventilation Controller request for Controller:OutdoorAir=9 ZONE PVAV WITH PFP BOXES AND REHEAT 9 OA CONTROLLER, Min OA fraction is used.
   **   ~~~   ** This may be overriding desired ventilation controls. Check inputs for Minimum Outdoor Air Flow Rate, Minimum Outdoor Air Schedule Name and Controller:MechanicalVentilation
   **   ~~~   ** Minimum OA fraction = 5.7192E-002, Mech Vent OA fraction = 5.7192E-002
   **   ~~~   **  Environment=RUN PERIOD 1, at Simulation time=01/01 05:00 - 06:00
   ** Warning ** SimHVAC: Maximum iterations (20) exceeded for all HVAC loops, at RUN PERIOD 1, 01/13 06:00 - 07:00
   **   ~~~   ** The solution for one or more of the Air Loop HVAC systems did not appear to converge
   **   ~~~   ** ...use Output:Diagnostics,DisplayExtraWarnings; to show more details on each max iteration exceeded.
   ** Warning ** SimHVAC: Maximum iterations (20) exceeded for all HVAC loops, at RUN PERIOD 1, 01/23 05:00 - 06:00
   **   ~~~   ** The solution for one or more of the Air Loop HVAC systems did not appear to converge
   ** Warning ** SimHVAC: Maximum iterations (20) exceeded for all HVAC loops, at RUN PERIOD 1, 02/14 05:00 - 06:00
   **   ~~~   ** The solution for one or more of the Air Loop HVAC systems did not appear to converge
   ** Warning ** SimHVAC: Maximum iterations (20) exceeded for all HVAC loops, at RUN PERIOD 1, 02/15 05:00 - 06:00
   **   ~~~   ** The solution for one or more of the Air Loop HVAC systems did not appear to converge
   ** Warning ** SimHVAC: Maximum iterations (20) exceeded for all HVAC loops, at RUN PERIOD 1, 03/05 05:45 - 05:52
   **   ~~~   ** The solution for one or more of the Air Loop HVAC systems did not appear to converge
   ** Warning ** SimHVAC: Maximum iterations (20) exceeded for all HVAC loops, at RUN PERIOD 1, 03/05 05:53 - 06:00
   **   ~~~   ** The solution for one or more of the Air Loop HVAC systems did not appear to converge
   ** Warning ** SimHVAC: Maximum iterations (20) exceeded for all HVAC loops, at RUN PERIOD 1, 03/06 05:00 - 06:00
   **   ~~~   ** The solution for one or more of the Air Loop HVAC systems did not appear to converge
   ** Warning ** SimHVAC: Maximum iterations (20) exceeded for all HVAC loops, at RUN PERIOD 1, 03/07 05:00 - 06:00
   **   ~~~   ** The solution for one or more of the Air Loop HVAC systems did not appear to converge
   ** Warning ** SimHVAC: Maximum iterations (20) exceeded for all HVAC loops, at RUN PERIOD 1, 03/08 05:30 - 05:40
   **   ~~~   ** The solution for one or more of the Air Loop HVAC systems did not appear to converge
   ** Warning ** SimHVAC: Maximum iterations (20) exceeded for all HVAC loops, at RUN PERIOD 1, 03/08 06:00 - 07:00
   **   ~~~   ** The solution for one or more of the Air Loop HVAC systems did not appear to converge
   ** Warning ** SimHVAC: Maximum iterations (20) exceeded for all HVAC loops, at RUN PERIOD 1, 03/08 06:00 - 06:30
   **   ~~~   ** The solution for one or more of the Air Loop HVAC systems did not appear to converge
   ** Warning ** SimHVAC: Maximum iterations (20) exceeded for all HVAC loops, at RUN PERIOD 1, 03/08 07:00 - 07:15
   **   ~~~   ** The solution for one or more of the Air Loop HVAC systems did not appear to converge
   ** Warning ** SimHVAC: Maximum iterations (20) exceeded for all HVAC loops, at RUN PERIOD 1, 03/08 07:15 - 07:30
   **   ~~~   ** The solution for one or more of the Air Loop HVAC systems did not appear to converge
   ** Warning ** SimHVAC: Maximum iterations (20) exceeded for all HVAC loops, at RUN PERIOD 1, 03/08 07:45 - 08:00
   **   ~~~   ** The solution for one or more of the Air Loop HVAC systems did not appear to converge
   ** Warning ** The resource referenced by LifeCycleCost:UsePriceEscalation= "U.S. AVG  COMMERCIAL-ELECTRICITY" has no energy cost. 
   **   ~~~   ** ... It is likely that the wrong resource is used. The resource should match the meter used in Utility:Tariff.
   ** Warning ** The resource referenced by LifeCycleCost:UsePriceEscalation= "U.S. AVG  COMMERCIAL-DISTILLATE OIL" has no energy cost. 
   **   ~~~   ** ... It is likely that the wrong resource is used. The resource should match the meter used in Utility:Tariff.
   ** Warning ** The resource referenced by LifeCycleCost:UsePriceEscalation= "U.S. AVG  COMMERCIAL-RESIDUAL OIL" has no energy cost. 
   **   ~~~   ** ... It is likely that the wrong resource is used. The resource should match the meter used in Utility:Tariff.
   ** Warning ** The resource referenced by LifeCycleCost:UsePriceEscalation= "U.S. AVG  COMMERCIAL-NATURAL GAS" has no energy cost. 
   **   ~~~   ** ... It is likely that the wrong resource is used. The resource should match the meter used in Utility:Tariff.
   ** Warning ** The resource referenced by LifeCycleCost:UsePriceEscalation= "U.S. AVG  COMMERCIAL-COAL" has no energy cost. 
   **   ~~~   ** ... It is likely that the wrong resource is used. The resource should match the meter used in Utility:Tariff.
   ************* Simulation Error Summary *************
   ************* There are 32 unused schedules in input.
   ************* There are 59 unused week schedules in input.
   ************* There are 147 unused day schedules in input.
   ************* Use Output:Diagnostics,DisplayUnusedSchedules; to see them.
   *************
   ************* ===== Recurring Error Summary =====
   ************* The following recurring error messages occurred.
   *************
   *************  ** Warning ** Enthalpy out of range (PsyTsatFnHPb)
   *************  **   ~~~   **   This error occurred 4501 total times;
   *************  **   ~~~   **   during Warmup 0 times;
   *************  **   ~~~   **   during Sizing 0 times.
   *************  **   ~~~   **   Max=-42401.030127 J/kg  Min=-68222.669435 J/kg
   *************
   *************  ** Warning ** Calculated Humidity Ratio invalid (PsyWFnTdbH)
   *************  **   ~~~   **   This error occurred 28868 total times;
   *************  **   ~~~   **   during Warmup 0 times;
   *************  **   ~~~   **   during Sizing 0 times.
   *************  **   ~~~   **   Max=-0.000106 []  Min=-0.008078 []
   *************
   *************  ** Warning ** "OFFICE WHOLEBUILDING - LG OFFICE - COMSTOCK DOE REF 1980-2004 SERVICE WATER USE 0.08GPM AT 140F" - Target water temperature should be less than or equal to the hot water temperature error continues...
   *************  **   ~~~   **   This error occurred 223111 total times;
   *************  **   ~~~   **   during Warmup 0 times;
   *************  **   ~~~   **   during Sizing 0 times.
   *************  **   ~~~   **   Max=27.699727  Min=26.217061
   *************
   *************  ** Warning ** Controller:OutdoorAir="9 ZONE PVAV WITH PFP BOXES AND REHEAT OA CONTROLLER": Min OA fraction > Mechanical ventilation OA fraction, continues...
   *************  **   ~~~   **   This error occurred 33747 total times;
   *************  **   ~~~   **   during Warmup 0 times;
   *************  **   ~~~   **   during Sizing 0 times.
   *************  **   ~~~   **   Max=0.059730  Min=0.059730
   *************
   *************  ** Warning ** Controller:OutdoorAir="9 ZONE PVAV WITH PFP BOXES AND REHEAT 1 OA CONTROLLER": Min OA fraction > Mechanical ventilation OA fraction, continues...
   *************  **   ~~~   **   This error occurred 33753 total times;
   *************  **   ~~~   **   during Warmup 0 times;
   *************  **   ~~~   **   during Sizing 0 times.
   *************  **   ~~~   **   Max=0.055990  Min=0.055990
   *************
   *************  ** Warning ** Controller:OutdoorAir="9 ZONE PVAV WITH PFP BOXES AND REHEAT 10 OA CONTROLLER": Min OA fraction > Mechanical ventilation OA fraction, continues...
   *************  **   ~~~   **   This error occurred 33757 total times;
   *************  **   ~~~   **   during Warmup 0 times;
   *************  **   ~~~   **   during Sizing 0 times.
   *************  **   ~~~   **   Max=0.057225  Min=0.057225
   *************
   *************  ** Warning ** Controller:OutdoorAir="9 ZONE PVAV WITH PFP BOXES AND REHEAT 11 OA CONTROLLER": Min OA fraction > Mechanical ventilation OA fraction, continues...
   *************  **   ~~~   **   This error occurred 33751 total times;
   *************  **   ~~~   **   during Warmup 0 times;
   *************  **   ~~~   **   during Sizing 0 times.
   *************  **   ~~~   **   Max=0.056226  Min=0.056226
   *************
   *************  ** Warning ** Controller:OutdoorAir="9 ZONE PVAV WITH PFP BOXES AND REHEAT 12 OA CONTROLLER": Min OA fraction > Mechanical ventilation OA fraction, continues...
   *************  **   ~~~   **   This error occurred 33751 total times;
   *************  **   ~~~   **   during Warmup 0 times;
   *************  **   ~~~   **   during Sizing 0 times.
   *************  **   ~~~   **   Max=0.056386  Min=0.056386
   *************
   *************  ** Warning ** Controller:OutdoorAir="9 ZONE PVAV WITH PFP BOXES AND REHEAT 13 OA CONTROLLER": Min OA fraction > Mechanical ventilation OA fraction, continues...
   *************  **   ~~~   **   This error occurred 33752 total times;
   *************  **   ~~~   **   during Warmup 0 times;
   *************  **   ~~~   **   during Sizing 0 times.
   *************  **   ~~~   **   Max=0.056506  Min=0.056506
   *************
   *************  ** Warning ** Controller:OutdoorAir="9 ZONE PVAV WITH PFP BOXES AND REHEAT 14 OA CONTROLLER": Min OA fraction > Mechanical ventilation OA fraction, continues...
   *************  **   ~~~   **   This error occurred 33753 total times;
   *************  **   ~~~   **   during Warmup 0 times;
   *************  **   ~~~   **   during Sizing 0 times.
   *************  **   ~~~   **   Max=0.056603  Min=0.056603
   *************
   *************  ** Warning ** Controller:OutdoorAir="9 ZONE PVAV WITH PFP BOXES AND REHEAT 15 OA CONTROLLER": Min OA fraction > Mechanical ventilation OA fraction, continues...
   *************  **   ~~~   **   This error occurred 33753 total times;
   *************  **   ~~~   **   during Warmup 0 times;
   *************  **   ~~~   **   during Sizing 0 times.
   *************  **   ~~~   **   Max=0.056684  Min=0.056684
   *************
   *************  ** Warning ** Controller:OutdoorAir="9 ZONE PVAV WITH PFP BOXES AND REHEAT 16 OA CONTROLLER": Min OA fraction > Mechanical ventilation OA fraction, continues...
   *************  **   ~~~   **   This error occurred 33752 total times;
   *************  **   ~~~   **   during Warmup 0 times;
   *************  **   ~~~   **   during Sizing 0 times.
   *************  **   ~~~   **   Max=0.056754  Min=0.056754
   *************
   *************  ** Warning ** Controller:OutdoorAir="9 ZONE PVAV WITH PFP BOXES AND REHEAT 17 OA CONTROLLER": Min OA fraction > Mechanical ventilation OA fraction, continues...
   *************  **   ~~~   **   This error occurred 33752 total times;
   *************  **   ~~~   **   during Warmup 0 times;
   *************  **   ~~~   **   during Sizing 0 times.
   *************  **   ~~~   **   Max=0.056815  Min=0.056815
   *************
   *************  ** Warning ** Controller:OutdoorAir="9 ZONE PVAV WITH PFP BOXES AND REHEAT 18 OA CONTROLLER": Min OA fraction > Mechanical ventilation OA fraction, continues...
   *************  **   ~~~   **   This error occurred 33754 total times;
   *************  **   ~~~   **   during Warmup 0 times;
   *************  **   ~~~   **   during Sizing 0 times.
   *************  **   ~~~   **   Max=0.056870  Min=0.056870
   *************
   *************  ** Warning ** Controller:OutdoorAir="9 ZONE PVAV WITH PFP BOXES AND REHEAT 19 OA CONTROLLER": Min OA fraction > Mechanical ventilation OA fraction, continues...
   *************  **   ~~~   **   This error occurred 33750 total times;
   *************  **   ~~~   **   during Warmup 0 times;
   *************  **   ~~~   **   during Sizing 0 times.
   *************  **   ~~~   **   Max=0.049949  Min=0.049949
   *************
   *************  ** Warning ** Controller:OutdoorAir="9 ZONE PVAV WITH PFP BOXES AND REHEAT 2 OA CONTROLLER": Min OA fraction > Mechanical ventilation OA fraction, continues...
   *************  **   ~~~   **   This error occurred 33755 total times;
   *************  **   ~~~   **   during Warmup 0 times;
   *************  **   ~~~   **   during Sizing 0 times.
   *************  **   ~~~   **   Max=0.056920  Min=0.056920
   *************
   *************  ** Warning ** Controller:OutdoorAir="9 ZONE PVAV WITH PFP BOXES AND REHEAT 3 OA CONTROLLER": Min OA fraction > Mechanical ventilation OA fraction, continues...
   *************  **   ~~~   **   This error occurred 33755 total times;
   *************  **   ~~~   **   during Warmup 0 times;
   *************  **   ~~~   **   during Sizing 0 times.
   *************  **   ~~~   **   Max=0.056967  Min=0.056967
   *************
   *************  ** Warning ** Controller:OutdoorAir="9 ZONE PVAV WITH PFP BOXES AND REHEAT 4 OA CONTROLLER": Min OA fraction > Mechanical ventilation OA fraction, continues...
   *************  **   ~~~   **   This error occurred 33754 total times;
   *************  **   ~~~   **   during Warmup 0 times;
   *************  **   ~~~   **   during Sizing 0 times.
   *************  **   ~~~   **   Max=0.057009  Min=0.057009
   *************
   *************  ** Warning ** Controller:OutdoorAir="9 ZONE PVAV WITH PFP BOXES AND REHEAT 5 OA CONTROLLER": Min OA fraction > Mechanical ventilation OA fraction, continues...
   *************  **   ~~~   **   This error occurred 33755 total times;
   *************  **   ~~~   **   during Warmup 0 times;
   *************  **   ~~~   **   during Sizing 0 times.
   *************  **   ~~~   **   Max=0.057050  Min=0.057050
   *************
   *************  ** Warning ** Controller:OutdoorAir="9 ZONE PVAV WITH PFP BOXES AND REHEAT 6 OA CONTROLLER": Min OA fraction > Mechanical ventilation OA fraction, continues...
   *************  **   ~~~   **   This error occurred 33755 total times;
   *************  **   ~~~   **   during Warmup 0 times;
   *************  **   ~~~   **   during Sizing 0 times.
   *************  **   ~~~   **   Max=0.057088  Min=0.057088
   *************
   *************  ** Warning ** Controller:OutdoorAir="9 ZONE PVAV WITH PFP BOXES AND REHEAT 7 OA CONTROLLER": Min OA fraction > Mechanical ventilation OA fraction, continues...
   *************  **   ~~~   **   This error occurred 33756 total times;
   *************  **   ~~~   **   during Warmup 0 times;
   *************  **   ~~~   **   during Sizing 0 times.
   *************  **   ~~~   **   Max=0.057124  Min=0.057124
   *************
   *************  ** Warning ** Controller:OutdoorAir="9 ZONE PVAV WITH PFP BOXES AND REHEAT 8 OA CONTROLLER": Min OA fraction > Mechanical ventilation OA fraction, continues...
   *************  **   ~~~   **   This error occurred 33756 total times;
   *************  **   ~~~   **   during Warmup 0 times;
   *************  **   ~~~   **   during Sizing 0 times.
   *************  **   ~~~   **   Max=0.057159  Min=0.057159
   *************
   *************  ** Warning ** Controller:OutdoorAir="9 ZONE PVAV WITH PFP BOXES AND REHEAT 9 OA CONTROLLER": Min OA fraction > Mechanical ventilation OA fraction, continues...
   *************  **   ~~~   **   This error occurred 33757 total times;
   *************  **   ~~~   **   during Warmup 0 times;
   *************  **   ~~~   **   during Sizing 0 times.
   *************  **   ~~~   **   Max=0.057192  Min=0.057192
   *************
   *************  ** Warning ** SimHVAC: Exceeding Maximum iterations for all HVAC loops, during RUN PERIOD 1 continues
   *************  **   ~~~   **   This error occurred 6 total times;
   *************  **   ~~~   **   during Warmup 0 times;
   *************  **   ~~~   **   during Sizing 0 times.
   *************
   *************
   ************* ===== Final Error Summary =====
   ************* The following error categories occurred.  Consider correcting or noting.
   ************* Nominally Unused Constructions
   ************* ..The nominally unused constructions warning is provided to alert you to potential conditions that can cause
   ************* ..extra time during simulation. Each construction is calculated by the algorithm indicated in the HeatBalanceAlgorithm
   ************* ..object. You may remove the constructions indicated (when you use the DisplayExtraWarnings option).
   *************
   ************* EnergyPlus Warmup Error Summary. During Warmup: 0 Warning; 0 Severe Errors.
   ************* EnergyPlus Sizing Error Summary. During Sizing: 617 Warning; 0 Severe Errors.
   ************* EnergyPlus Completed Successfully-- 932398 Warning; 0 Severe Errors; Elapsed Time=00hr 03min 18.82sec
